data_image0
_cell_length_a       18.4492
_cell_length_b       18.4493
_cell_length_c       18.4492
_cell_angle_alpha    60.0003
_cell_angle_beta     60.0004
_cell_angle_gamma    60.0004

_symmetry_space_group_name_H-M    "P 1"
_symmetry_int_tables_number       1

loop_
  _symmetry_equiv_pos_as_xyz
  'x, y, z'

loop_
  _atom_site_label
  _atom_site_occupancy
  _atom_site_fract_x
  _atom_site_fract_y
  _atom_site_fract_z
  _atom_site_thermal_displace_type
  _atom_site_B_iso_or_equiv
  _atom_site_type_symbol
  C1       1.0000 0.03912  0.90757  0.52666  Biso   1.000  C 
  C2       1.0000 0.88895  0.61105  0.61105  Biso   1.000  C 
  C3       1.0000 0.55366  0.94634  0.94634  Biso   1.000  C 
  C4       1.0000 0.38895  0.11105  0.38895  Biso   1.000  C 
  C5       1.0000 0.88895  0.61105  0.88895  Biso   1.000  C 
  C6       1.0000 0.55366  0.94634  0.55366  Biso   1.000  C 
  C7       1.0000 0.61105  0.88895  0.61105  Biso   1.000  C 
  C8       1.0000 0.44634  0.44634  0.05366  Biso   1.000  C 
  C9       1.0000 0.38895  0.38895  0.11105  Biso   1.000  C 
  C10      1.0000 0.05366  0.05366  0.44634  Biso   1.000  C 
  C11      1.0000 0.11105  0.11105  0.38895  Biso   1.000  C 
  C12      1.0000 0.94634  0.55366  0.94634  Biso   1.000  C 
  C13      1.0000 0.09243  0.96088  0.47334  Biso   1.000  C 
  C14      1.0000 0.96088  0.09243  0.47334  Biso   1.000  C 
  C15      1.0000 0.47334  0.09243  0.47334  Biso   1.000  C 
  C16      1.0000 0.47334  0.96088  0.47334  Biso   1.000  C 
  C17      1.0000 0.09243  0.47334  0.96088  Biso   1.000  C 
  C18      1.0000 0.96088  0.47334  0.47334  Biso   1.000  C 
  C19      1.0000 0.47334  0.96088  0.09243  Biso   1.000  C 
  C20      1.0000 0.47334  0.09243  0.96088  Biso   1.000  C 
  C21      1.0000 0.09243  0.47334  0.47334  Biso   1.000  C 
  C22      1.0000 0.96088  0.47334  0.09243  Biso   1.000  C 
  C23      1.0000 0.94634  0.55366  0.55366  Biso   1.000  C 
  C24      1.0000 0.88895  0.88895  0.61105  Biso   1.000  C 
  C25      1.0000 0.61105  0.88895  0.88895  Biso   1.000  C 
  C26      1.0000 0.61105  0.61105  0.88895  Biso   1.000  C 
  C27      1.0000 0.44634  0.05366  0.05366  Biso   1.000  C 
  C28      1.0000 0.38895  0.11105  0.11105  Biso   1.000  C 
  C29      1.0000 0.05366  0.44634  0.44634  Biso   1.000  C 
  C30      1.0000 0.11105  0.38895  0.38895  Biso   1.000  C 
  C31      1.0000 0.90757  0.03912  0.52666  Biso   1.000  C 
  C32      1.0000 0.94634  0.94634  0.55366  Biso   1.000  C 
  C33      1.0000 0.52666  0.52666  0.90757  Biso   1.000  C 
  C34      1.0000 0.11105  0.38895  0.11105  Biso   1.000  C 
  C35      1.0000 0.52666  0.03912  0.90757  Biso   1.000  C 
  C36      1.0000 0.03912  0.52666  0.52666  Biso   1.000  C 
  C37      1.0000 0.52666  0.90757  0.03912  Biso   1.000  C 
  C38      1.0000 0.52666  0.52666  0.03912  Biso   1.000  C 
  C39      1.0000 0.03912  0.52666  0.90757  Biso   1.000  C 
  C40      1.0000 0.90757  0.52666  0.03912  Biso   1.000  C 
  C41      1.0000 0.52666  0.90757  0.52666  Biso   1.000  C 
  C42      1.0000 0.47334  0.47334  0.96088  Biso   1.000  C 
  C43      1.0000 0.90757  0.52666  0.52666  Biso   1.000  C 
  C44      1.0000 0.47334  0.47334  0.09243  Biso   1.000  C 
  C45      1.0000 0.05366  0.44634  0.05366  Biso   1.000  C 
  C46      1.0000 0.44634  0.05366  0.44634  Biso   1.000  C 
  C47      1.0000 0.55366  0.55366  0.94634  Biso   1.000  C 
  C48      1.0000 0.52666  0.03912  0.52666  Biso   1.000  C 
  H1       1.0000 0.83548  0.54809  0.06834  Biso   1.000  H 
  H2       1.0000 0.83548  0.06834  0.54809  Biso   1.000  H 
  H3       1.0000 0.54809  0.54809  0.06834  Biso   1.000  H 
  H4       1.0000 0.06834  0.83548  0.54809  Biso   1.000  H 
  H5       1.0000 0.54809  0.54809  0.83548  Biso   1.000  H 
  H6       1.0000 0.54809  0.06834  0.83548  Biso   1.000  H 
  H7       1.0000 0.06834  0.54809  0.54809  Biso   1.000  H 
  H8       1.0000 0.54809  0.83548  0.06834  Biso   1.000  H 
  H9       1.0000 0.54809  0.06834  0.54809  Biso   1.000  H 
  H10      1.0000 0.06834  0.54809  0.83548  Biso   1.000  H 
  H11      1.0000 0.83548  0.54809  0.54809  Biso   1.000  H 
  H12      1.0000 0.45191  0.45191  0.16452  Biso   1.000  H 
  H13      1.0000 0.45191  0.93166  0.16452  Biso   1.000  H 
  H14      1.0000 0.45191  0.93166  0.45191  Biso   1.000  H 
  H15      1.0000 0.16452  0.45191  0.45191  Biso   1.000  H 
  H16      1.0000 0.45191  0.16452  0.93166  Biso   1.000  H 
  H17      1.0000 0.93166  0.16452  0.45191  Biso   1.000  H 
  H18      1.0000 0.93166  0.45191  0.45191  Biso   1.000  H 
  H19      1.0000 0.16452  0.45191  0.93166  Biso   1.000  H 
  H20      1.0000 0.45191  0.16452  0.45191  Biso   1.000  H 
  H21      1.0000 0.93166  0.45191  0.16452  Biso   1.000  H 
  H22      1.0000 0.16452  0.93166  0.45191  Biso   1.000  H 
  H23      1.0000 0.45191  0.45191  0.93166  Biso   1.000  H 
  H24      1.0000 0.54809  0.83548  0.54809  Biso   1.000  H 
  O1       1.0000 0.92851  0.80506  0.63321  Biso   1.000  O 
  O2       1.0000 0.36679  0.19494  0.36679  Biso   1.000  O 
  O3       1.0000 0.80506  0.92851  0.63321  Biso   1.000  O 
  O4       1.0000 0.19494  0.36679  0.07149  Biso   1.000  O 
  O5       1.0000 0.07149  0.36679  0.36679  Biso   1.000  O 
  O6       1.0000 0.63321  0.63321  0.92851  Biso   1.000  O 
  O7       1.0000 0.36679  0.19494  0.07149  Biso   1.000  O 
  O8       1.0000 0.19494  0.36679  0.36679  Biso   1.000  O 
  O9       1.0000 0.75000  0.75000  0.75000  Biso   1.000  O 
  O10      1.0000 0.25000  0.25000  0.25000  Biso   1.000  O 
  O11      1.0000 0.36679  0.07149  0.36679  Biso   1.000  O 
  O12      1.0000 0.36679  0.07149  0.19494  Biso   1.000  O 
  O13      1.0000 0.92851  0.63321  0.80506  Biso   1.000  O 
  O14      1.0000 0.63321  0.92851  0.63321  Biso   1.000  O 
  O15      1.0000 0.92852  0.63321  0.63321  Biso   1.000  O 
  O16      1.0000 0.19494  0.07149  0.36679  Biso   1.000  O 
  O17      1.0000 0.07149  0.36679  0.19494  Biso   1.000  O 
  O18      1.0000 0.36679  0.36679  0.19494  Biso   1.000  O 
  O19      1.0000 0.36679  0.36679  0.07149  Biso   1.000  O 
  O20      1.0000 0.07149  0.19494  0.36679  Biso   1.000  O 
  O21      1.0000 0.80506  0.63321  0.92851  Biso   1.000  O 
  O22      1.0000 0.63321  0.63321  0.80506  Biso   1.000  O 
  O23      1.0000 0.63321  0.80506  0.92851  Biso   1.000  O 
  O24      1.0000 0.63321  0.92851  0.80506  Biso   1.000  O 
  O25      1.0000 0.80507  0.63321  0.63321  Biso   1.000  O 
  O26      1.0000 0.63321  0.80506  0.63321  Biso   1.000  O 
  Zn1      1.0000 0.70651  0.70651  0.70651  Biso   1.000  Zn
  Zn2      1.0000 0.29349  0.29349  0.11953  Biso   1.000  Zn
  Zn3      1.0000 0.29349  0.11953  0.29349  Biso   1.000  Zn
  Zn4      1.0000 0.11953  0.29349  0.29349  Biso   1.000  Zn
  Zn5      1.0000 0.70651  0.88047  0.70651  Biso   1.000  Zn
  Zn6      1.0000 0.70651  0.70651  0.88047  Biso   1.000  Zn
  Zn7      1.0000 0.88047  0.70651  0.70651  Biso   1.000  Zn
  Zn8      1.0000 0.29349  0.29349  0.29349  Biso   1.000  Zn
