data_image0
_cell_length_a       18.8348
_cell_length_b       18.8348
_cell_length_c       18.8348
_cell_angle_alpha    59.9997
_cell_angle_beta     59.9997
_cell_angle_gamma    59.9997

_symmetry_space_group_name_H-M    "P 1"
_symmetry_int_tables_number       1

loop_
  _symmetry_equiv_pos_as_xyz
  'x, y, z'

loop_
  _atom_site_label
  _atom_site_occupancy
  _atom_site_fract_x
  _atom_site_fract_y
  _atom_site_fract_z
  _atom_site_thermal_displace_type
  _atom_site_B_iso_or_equiv
  _atom_site_type_symbol
  C1       1.0000 0.03764  0.90980  0.52628  Biso   1.000  C 
  C2       1.0000 0.88900  0.61100  0.61100  Biso   1.000  C 
  C3       1.0000 0.55371  0.94630  0.94630  Biso   1.000  C 
  C4       1.0000 0.38900  0.11100  0.38900  Biso   1.000  C 
  C5       1.0000 0.88900  0.61100  0.88900  Biso   1.000  C 
  C6       1.0000 0.55370  0.94630  0.55370  Biso   1.000  C 
  C7       1.0000 0.61100  0.88900  0.61100  Biso   1.000  C 
  C8       1.0000 0.44630  0.44630  0.05370  Biso   1.000  C 
  C9       1.0000 0.38900  0.38900  0.11100  Biso   1.000  C 
  C10      1.0000 0.05370  0.05370  0.44629  Biso   1.000  C 
  C11      1.0000 0.11100  0.11100  0.38900  Biso   1.000  C 
  C12      1.0000 0.94630  0.55371  0.94630  Biso   1.000  C 
  C13      1.0000 0.09020  0.96236  0.47372  Biso   1.000  C 
  C14      1.0000 0.96236  0.09020  0.47372  Biso   1.000  C 
  C15      1.0000 0.47372  0.09020  0.47372  Biso   1.000  C 
  C16      1.0000 0.47372  0.96236  0.47372  Biso   1.000  C 
  C17      1.0000 0.09020  0.47372  0.96236  Biso   1.000  C 
  C18      1.0000 0.96236  0.47372  0.47372  Biso   1.000  C 
  C19      1.0000 0.47372  0.96236  0.09020  Biso   1.000  C 
  C20      1.0000 0.47372  0.09020  0.96236  Biso   1.000  C 
  C21      1.0000 0.09020  0.47372  0.47372  Biso   1.000  C 
  C22      1.0000 0.96236  0.47372  0.09020  Biso   1.000  C 
  C23      1.0000 0.94630  0.55370  0.55370  Biso   1.000  C 
  C24      1.0000 0.88900  0.88900  0.61100  Biso   1.000  C 
  C25      1.0000 0.61100  0.88900  0.88900  Biso   1.000  C 
  C26      1.0000 0.61100  0.61100  0.88900  Biso   1.000  C 
  C27      1.0000 0.44629  0.05370  0.05370  Biso   1.000  C 
  C28      1.0000 0.38900  0.11100  0.11100  Biso   1.000  C 
  C29      1.0000 0.05370  0.44630  0.44630  Biso   1.000  C 
  C30      1.0000 0.11100  0.38900  0.38900  Biso   1.000  C 
  C31      1.0000 0.90980  0.03764  0.52628  Biso   1.000  C 
  C32      1.0000 0.94630  0.94630  0.55371  Biso   1.000  C 
  C33      1.0000 0.52628  0.52628  0.90980  Biso   1.000  C 
  C34      1.0000 0.11100  0.38900  0.11100  Biso   1.000  C 
  C35      1.0000 0.52628  0.03764  0.90980  Biso   1.000  C 
  C36      1.0000 0.03764  0.52628  0.52628  Biso   1.000  C 
  C37      1.0000 0.52628  0.90980  0.03764  Biso   1.000  C 
  C38      1.0000 0.52628  0.52628  0.03764  Biso   1.000  C 
  C39      1.0000 0.03764  0.52628  0.90980  Biso   1.000  C 
  C40      1.0000 0.90980  0.52628  0.03764  Biso   1.000  C 
  C41      1.0000 0.52628  0.90980  0.52628  Biso   1.000  C 
  C42      1.0000 0.47372  0.47372  0.96236  Biso   1.000  C 
  C43      1.0000 0.90980  0.52628  0.52628  Biso   1.000  C 
  C44      1.0000 0.47372  0.47372  0.09020  Biso   1.000  C 
  C45      1.0000 0.05370  0.44629  0.05370  Biso   1.000  C 
  C46      1.0000 0.44630  0.05370  0.44630  Biso   1.000  C 
  C47      1.0000 0.55370  0.55370  0.94630  Biso   1.000  C 
  C48      1.0000 0.52628  0.03764  0.52628  Biso   1.000  C 
  H1       1.0000 0.83924  0.54670  0.06736  Biso   1.000  H 
  H2       1.0000 0.83924  0.06736  0.54670  Biso   1.000  H 
  H3       1.0000 0.54670  0.54670  0.06736  Biso   1.000  H 
  H4       1.0000 0.06736  0.83924  0.54670  Biso   1.000  H 
  H5       1.0000 0.54670  0.54670  0.83924  Biso   1.000  H 
  H6       1.0000 0.54670  0.06736  0.83924  Biso   1.000  H 
  H7       1.0000 0.06736  0.54670  0.54670  Biso   1.000  H 
  H8       1.0000 0.54670  0.83924  0.06736  Biso   1.000  H 
  H9       1.0000 0.54670  0.06736  0.54670  Biso   1.000  H 
  H10      1.0000 0.06736  0.54670  0.83924  Biso   1.000  H 
  H11      1.0000 0.83924  0.54670  0.54670  Biso   1.000  H 
  H12      1.0000 0.45330  0.45330  0.16076  Biso   1.000  H 
  H13      1.0000 0.45330  0.93264  0.16076  Biso   1.000  H 
  H14      1.0000 0.45330  0.93264  0.45330  Biso   1.000  H 
  H15      1.0000 0.16076  0.45330  0.45330  Biso   1.000  H 
  H16      1.0000 0.45330  0.16076  0.93264  Biso   1.000  H 
  H17      1.0000 0.93264  0.16076  0.45330  Biso   1.000  H 
  H18      1.0000 0.93264  0.45330  0.45330  Biso   1.000  H 
  H19      1.0000 0.16076  0.45330  0.93264  Biso   1.000  H 
  H20      1.0000 0.45330  0.16076  0.45330  Biso   1.000  H 
  H21      1.0000 0.93264  0.45330  0.16076  Biso   1.000  H 
  H22      1.0000 0.16076  0.93264  0.45330  Biso   1.000  H 
  H23      1.0000 0.45330  0.45330  0.93264  Biso   1.000  H 
  H24      1.0000 0.54670  0.83924  0.54670  Biso   1.000  H 
  O1       1.0000 0.92721  0.80647  0.63317  Biso   1.000  O 
  O2       1.0000 0.36684  0.19353  0.36684  Biso   1.000  O 
  O3       1.0000 0.80647  0.92721  0.63317  Biso   1.000  O 
  O4       1.0000 0.19353  0.36683  0.07279  Biso   1.000  O 
  O5       1.0000 0.07279  0.36684  0.36684  Biso   1.000  O 
  O6       1.0000 0.63316  0.63316  0.92721  Biso   1.000  O 
  O7       1.0000 0.36683  0.19353  0.07279  Biso   1.000  O 
  O8       1.0000 0.19353  0.36684  0.36684  Biso   1.000  O 
  O9       1.0000 0.75000  0.75000  0.75000  Biso   1.000  O 
  O10      1.0000 0.25000  0.25000  0.25000  Biso   1.000  O 
  O11      1.0000 0.36684  0.07279  0.36684  Biso   1.000  O 
  O12      1.0000 0.36683  0.07279  0.19353  Biso   1.000  O 
  O13      1.0000 0.92721  0.63317  0.80647  Biso   1.000  O 
  O14      1.0000 0.63316  0.92721  0.63316  Biso   1.000  O 
  O15      1.0000 0.92721  0.63316  0.63316  Biso   1.000  O 
  O16      1.0000 0.19353  0.07279  0.36683  Biso   1.000  O 
  O17      1.0000 0.07279  0.36683  0.19353  Biso   1.000  O 
  O18      1.0000 0.36684  0.36684  0.19353  Biso   1.000  O 
  O19      1.0000 0.36684  0.36684  0.07279  Biso   1.000  O 
  O20      1.0000 0.07279  0.19353  0.36683  Biso   1.000  O 
  O21      1.0000 0.80647  0.63317  0.92721  Biso   1.000  O 
  O22      1.0000 0.63316  0.63316  0.80647  Biso   1.000  O 
  O23      1.0000 0.63317  0.80647  0.92721  Biso   1.000  O 
  O24      1.0000 0.63317  0.92721  0.80647  Biso   1.000  O 
  O25      1.0000 0.80647  0.63316  0.63316  Biso   1.000  O 
  O26      1.0000 0.63316  0.80647  0.63316  Biso   1.000  O 
  Zn1      1.0000 0.70662  0.70662  0.70662  Biso   1.000  Zn
  Zn2      1.0000 0.29338  0.29338  0.11986  Biso   1.000  Zn
  Zn3      1.0000 0.29338  0.11986  0.29338  Biso   1.000  Zn
  Zn4      1.0000 0.11986  0.29338  0.29338  Biso   1.000  Zn
  Zn5      1.0000 0.70662  0.88014  0.70662  Biso   1.000  Zn
  Zn6      1.0000 0.70662  0.70662  0.88014  Biso   1.000  Zn
  Zn7      1.0000 0.88014  0.70662  0.70662  Biso   1.000  Zn
  Zn8      1.0000 0.29338  0.29338  0.29338  Biso   1.000  Zn
