data_image0
_cell_length_a       17.7661
_cell_length_b       17.7661
_cell_length_c       17.7661
_cell_angle_alpha    59.9991
_cell_angle_beta     59.9991
_cell_angle_gamma    59.9991

_symmetry_space_group_name_H-M    "P 1"
_symmetry_int_tables_number       1

loop_
  _symmetry_equiv_pos_as_xyz
  'x, y, z'

loop_
  _atom_site_label
  _atom_site_occupancy
  _atom_site_fract_x
  _atom_site_fract_y
  _atom_site_fract_z
  _atom_site_thermal_displace_type
  _atom_site_B_iso_or_equiv
  _atom_site_type_symbol
  C1       1.0000 0.04211  0.90322  0.52734  Biso   1.000  C 
  C2       1.0000 0.44679  0.05321  0.05321  Biso   1.000  C 
  C3       1.0000 0.38910  0.11090  0.11090  Biso   1.000  C 
  C4       1.0000 0.05322  0.44679  0.44679  Biso   1.000  C 
  C5       1.0000 0.90322  0.04211  0.52734  Biso   1.000  C 
  C6       1.0000 0.94679  0.94679  0.55321  Biso   1.000  C 
  C7       1.0000 0.52734  0.52734  0.90322  Biso   1.000  C 
  C8       1.0000 0.11090  0.38910  0.11090  Biso   1.000  C 
  C9       1.0000 0.52734  0.04211  0.90322  Biso   1.000  C 
  C10      1.0000 0.04211  0.52734  0.52734  Biso   1.000  C 
  C11      1.0000 0.52734  0.90322  0.04211  Biso   1.000  C 
  C12      1.0000 0.52734  0.52734  0.04211  Biso   1.000  C 
  C13      1.0000 0.04211  0.52734  0.90322  Biso   1.000  C 
  C14      1.0000 0.90322  0.52734  0.04211  Biso   1.000  C 
  C15      1.0000 0.52734  0.90322  0.52734  Biso   1.000  C 
  C16      1.0000 0.47266  0.47266  0.95789  Biso   1.000  C 
  C17      1.0000 0.90322  0.52734  0.52734  Biso   1.000  C 
  C18      1.0000 0.47266  0.47266  0.09678  Biso   1.000  C 
  C19      1.0000 0.05321  0.44679  0.05321  Biso   1.000  C 
  C20      1.0000 0.44679  0.05322  0.44679  Biso   1.000  C 
  C21      1.0000 0.55321  0.55321  0.94678  Biso   1.000  C 
  C22      1.0000 0.52734  0.04211  0.52734  Biso   1.000  C 
  C23      1.0000 0.61090  0.61090  0.88910  Biso   1.000  C 
  C24      1.0000 0.61090  0.88910  0.88910  Biso   1.000  C 
  C25      1.0000 0.11090  0.38910  0.38910  Biso   1.000  C 
  C26      1.0000 0.94678  0.55321  0.55321  Biso   1.000  C 
  C27      1.0000 0.88910  0.61090  0.61090  Biso   1.000  C 
  C28      1.0000 0.55321  0.94679  0.94679  Biso   1.000  C 
  C29      1.0000 0.38910  0.11090  0.38910  Biso   1.000  C 
  C30      1.0000 0.88910  0.61090  0.88910  Biso   1.000  C 
  C31      1.0000 0.55321  0.94678  0.55321  Biso   1.000  C 
  C32      1.0000 0.88910  0.88910  0.61090  Biso   1.000  C 
  C33      1.0000 0.44679  0.44679  0.05322  Biso   1.000  C 
  C34      1.0000 0.38910  0.38910  0.11090  Biso   1.000  C 
  C35      1.0000 0.05321  0.05321  0.44679  Biso   1.000  C 
  C36      1.0000 0.11090  0.11090  0.38910  Biso   1.000  C 
  C37      1.0000 0.94679  0.55321  0.94679  Biso   1.000  C 
  C38      1.0000 0.61090  0.88910  0.61090  Biso   1.000  C 
  C39      1.0000 0.95789  0.09678  0.47266  Biso   1.000  C 
  C40      1.0000 0.47266  0.09678  0.47266  Biso   1.000  C 
  C41      1.0000 0.47266  0.95789  0.47266  Biso   1.000  C 
  C42      1.0000 0.09678  0.47266  0.95789  Biso   1.000  C 
  C43      1.0000 0.95789  0.47266  0.47266  Biso   1.000  C 
  C44      1.0000 0.47266  0.95789  0.09678  Biso   1.000  C 
  C45      1.0000 0.47266  0.09678  0.95789  Biso   1.000  C 
  C46      1.0000 0.09678  0.47266  0.47266  Biso   1.000  C 
  C47      1.0000 0.95789  0.47266  0.09678  Biso   1.000  C 
  C48      1.0000 0.09678  0.95789  0.47266  Biso   1.000  C 
  H1       1.0000 0.17167  0.44916  0.44916  Biso   1.000  H 
  H2       1.0000 0.44916  0.17167  0.93001  Biso   1.000  H 
  H3       1.0000 0.93001  0.17167  0.44916  Biso   1.000  H 
  H4       1.0000 0.93001  0.44916  0.44916  Biso   1.000  H 
  H5       1.0000 0.17167  0.44916  0.93001  Biso   1.000  H 
  H6       1.0000 0.55084  0.82833  0.55084  Biso   1.000  H 
  H7       1.0000 0.93001  0.44916  0.17167  Biso   1.000  H 
  H8       1.0000 0.17167  0.93001  0.44916  Biso   1.000  H 
  H9       1.0000 0.44916  0.44916  0.93001  Biso   1.000  H 
  H10      1.0000 0.44916  0.93001  0.44916  Biso   1.000  H 
  H11      1.0000 0.44916  0.17167  0.44916  Biso   1.000  H 
  H12      1.0000 0.44916  0.93001  0.17167  Biso   1.000  H 
  H13      1.0000 0.55084  0.55084  0.82833  Biso   1.000  H 
  H14      1.0000 0.82833  0.55084  0.55084  Biso   1.000  H 
  H15      1.0000 0.06999  0.55084  0.82833  Biso   1.000  H 
  H16      1.0000 0.55084  0.06999  0.55084  Biso   1.000  H 
  H17      1.0000 0.55084  0.82833  0.06999  Biso   1.000  H 
  H18      1.0000 0.06999  0.55084  0.55084  Biso   1.000  H 
  H19      1.0000 0.55084  0.06999  0.82833  Biso   1.000  H 
  H20      1.0000 0.06999  0.82833  0.55084  Biso   1.000  H 
  H21      1.0000 0.55084  0.55084  0.06999  Biso   1.000  H 
  H22      1.0000 0.82833  0.06999  0.55084  Biso   1.000  H 
  H23      1.0000 0.82833  0.55084  0.06999  Biso   1.000  H 
  H24      1.0000 0.44916  0.44916  0.17167  Biso   1.000  H 
  O1       1.0000 0.93144  0.63288  0.63288  Biso   1.000  O 
  O2       1.0000 0.19719  0.06856  0.36713  Biso   1.000  O 
  O3       1.0000 0.06856  0.36713  0.19719  Biso   1.000  O 
  O4       1.0000 0.36712  0.36712  0.19719  Biso   1.000  O 
  O5       1.0000 0.36712  0.36712  0.06856  Biso   1.000  O 
  O6       1.0000 0.80281  0.63288  0.63288  Biso   1.000  O 
  O7       1.0000 0.80281  0.63287  0.93144  Biso   1.000  O 
  O8       1.0000 0.63288  0.63288  0.80281  Biso   1.000  O 
  O9       1.0000 0.63287  0.80281  0.93144  Biso   1.000  O 
  O10      1.0000 0.63287  0.93144  0.80281  Biso   1.000  O 
  O11      1.0000 0.63288  0.80281  0.63288  Biso   1.000  O 
  O12      1.0000 0.06856  0.19719  0.36713  Biso   1.000  O 
  O13      1.0000 0.63288  0.93144  0.63288  Biso   1.000  O 
  O14      1.0000 0.36713  0.06856  0.19719  Biso   1.000  O 
  O15      1.0000 0.36712  0.06856  0.36712  Biso   1.000  O 
  O16      1.0000 0.93144  0.80281  0.63287  Biso   1.000  O 
  O17      1.0000 0.93144  0.63287  0.80281  Biso   1.000  O 
  O18      1.0000 0.80281  0.93144  0.63287  Biso   1.000  O 
  O19      1.0000 0.19719  0.36713  0.06856  Biso   1.000  O 
  O20      1.0000 0.06856  0.36712  0.36712  Biso   1.000  O 
  O21      1.0000 0.36712  0.19719  0.36712  Biso   1.000  O 
  O22      1.0000 0.36713  0.19719  0.06856  Biso   1.000  O 
  O23      1.0000 0.19719  0.36712  0.36712  Biso   1.000  O 
  O24      1.0000 0.75001  0.75001  0.75001  Biso   1.000  O 
  O25      1.0000 0.24999  0.24999  0.24999  Biso   1.000  O 
  O26      1.0000 0.63288  0.63288  0.93144  Biso   1.000  O 
  Zn1      1.0000 0.88105  0.70632  0.70632  Biso   1.000  Zn
  Zn2      1.0000 0.70632  0.70632  0.70632  Biso   1.000  Zn
  Zn3      1.0000 0.29368  0.29368  0.11895  Biso   1.000  Zn
  Zn4      1.0000 0.29368  0.11895  0.29368  Biso   1.000  Zn
  Zn5      1.0000 0.11895  0.29368  0.29368  Biso   1.000  Zn
  Zn6      1.0000 0.70632  0.88105  0.70632  Biso   1.000  Zn
  Zn7      1.0000 0.70632  0.70632  0.88105  Biso   1.000  Zn
  Zn8      1.0000 0.29368  0.29368  0.29368  Biso   1.000  Zn
