data_image0
_cell_length_a       24.0824
_cell_length_b       12.4396
_cell_length_c       5.79762
_cell_angle_alpha    90.0001
_cell_angle_beta     96.7699
_cell_angle_gamma    90

_symmetry_space_group_name_H-M    "P 1"
_symmetry_int_tables_number       1

loop_
  _symmetry_equiv_pos_as_xyz
  'x, y, z'

loop_
  _atom_site_label
  _atom_site_occupancy
  _atom_site_fract_x
  _atom_site_fract_y
  _atom_site_fract_z
  _atom_site_thermal_displace_type
  _atom_site_B_iso_or_equiv
  _atom_site_type_symbol
  C1       1.0000 0.11125  0.59290  0.82191  Biso   1.000  C 
  C2       1.0000 0.30552  0.20905  0.50759  Biso   1.000  C 
  C3       1.0000 0.21797  0.22599  0.67768  Biso   1.000  C 
  C4       1.0000 0.27206  0.18619  0.68512  Biso   1.000  C 
  C5       1.0000 0.88876  0.40709  0.17808  Biso   1.000  C 
  C6       1.0000 0.86193  0.33481  0.01395  Biso   1.000  C 
  C7       1.0000 0.80555  0.29083  0.00766  Biso   1.000  C 
  C8       1.0000 0.71801  0.27388  0.17775  Biso   1.000  C 
  C9       1.0000 0.77210  0.31368  0.18521  Biso   1.000  C 
  C10      1.0000 0.38875  0.90712  0.17808  Biso   1.000  C 
  C11      1.0000 0.40145  0.81886  0.85595  Biso   1.000  C 
  C12      1.0000 0.30552  0.79095  0.00759  Biso   1.000  C 
  C13      1.0000 0.21797  0.77401  0.17767  Biso   1.000  C 
  C14      1.0000 0.27206  0.81381  0.18511  Biso   1.000  C 
  C15      1.0000 0.11124  0.40710  0.32191  Biso   1.000  C 
  C16      1.0000 0.09851  0.31880  0.64398  Biso   1.000  C 
  C17      1.0000 0.13807  0.33482  0.48606  Biso   1.000  C 
  C18      1.0000 0.19445  0.29085  0.49235  Biso   1.000  C 
  C19      1.0000 0.28200  0.27390  0.32227  Biso   1.000  C 
  C20      1.0000 0.22791  0.31370  0.31481  Biso   1.000  C 
  C21      1.0000 0.61125  0.90712  0.32192  Biso   1.000  C 
  C22      1.0000 0.36191  0.83488  0.01392  Biso   1.000  C 
  C23      1.0000 0.36190  0.16512  0.51391  Biso   1.000  C 
  C24      1.0000 0.59855  0.81886  0.64405  Biso   1.000  C 
  C25      1.0000 0.63809  0.83489  0.48608  Biso   1.000  C 
  C26      1.0000 0.69448  0.79096  0.49241  Biso   1.000  C 
  C27      1.0000 0.72794  0.81382  0.31488  Biso   1.000  C 
  C28      1.0000 0.40145  0.18115  0.35595  Biso   1.000  C 
  C29      1.0000 0.38875  0.09288  0.67808  Biso   1.000  C 
  C30      1.0000 0.90149  0.31880  0.85601  Biso   1.000  C 
  C31      1.0000 0.59856  0.18114  0.14407  Biso   1.000  C 
  C32      1.0000 0.69448  0.20903  0.99241  Biso   1.000  C 
  C33      1.0000 0.63810  0.16511  0.98609  Biso   1.000  C 
  C34      1.0000 0.61125  0.09288  0.82192  Biso   1.000  C 
  C35      1.0000 0.22791  0.68631  0.81479  Biso   1.000  C 
  C36      1.0000 0.28200  0.72611  0.82226  Biso   1.000  C 
  C37      1.0000 0.19445  0.70915  0.99234  Biso   1.000  C 
  C38      1.0000 0.78204  0.22598  0.82233  Biso   1.000  C 
  C39      1.0000 0.90148  0.68120  0.35601  Biso   1.000  C 
  C40      1.0000 0.80555  0.70916  0.50765  Biso   1.000  C 
  C41      1.0000 0.71800  0.72611  0.67774  Biso   1.000  C 
  C42      1.0000 0.77209  0.68631  0.68520  Biso   1.000  C 
  C43      1.0000 0.13807  0.66518  0.98605  Biso   1.000  C 
  C44      1.0000 0.09852  0.68120  0.14398  Biso   1.000  C 
  C45      1.0000 0.86193  0.66519  0.51394  Biso   1.000  C 
  C46      1.0000 0.72795  0.18617  0.81489  Biso   1.000  C 
  C47      1.0000 0.78203  0.77402  0.32233  Biso   1.000  C 
  C48      1.0000 0.88875  0.59291  0.67808  Biso   1.000  C 
  Fe1      1.0000 1.00000  0.53509  0.24999  Biso   1.000  Fe
  Fe2      1.0000 0.50000  0.03509  0.25000  Biso   1.000  Fe
  Fe3      1.0000 0.50000  0.96493  0.75000  Biso   1.000  Fe
  Fe4      1.0000 1.00000  0.46492  0.75000  Biso   1.000  Fe
  H1       1.0000 0.21142  0.36360  0.16773  Biso   1.000  H 
  H2       1.0000 0.80625  0.79329  0.18024  Biso   1.000  H 
  H3       1.0000 0.60114  0.77003  0.80028  Biso   1.000  H 
  H4       1.0000 0.62593  0.94288  0.16933  Biso   1.000  H 
  H5       1.0000 0.69378  0.70683  0.81981  Biso   1.000  H 
  H6       1.0000 0.78857  0.63641  0.83228  Biso   1.000  H 
  H7       1.0000 0.37407  0.05712  0.83067  Biso   1.000  H 
  H8       1.0000 0.60115  0.22996  0.30030  Biso   1.000  H 
  H9       1.0000 0.10109  0.26994  0.80014  Biso   1.000  H 
  H10      1.0000 0.12593  0.44287  0.16934  Biso   1.000  H 
  H11      1.0000 0.12593  0.55713  0.66933  Biso   1.000  H 
  H12      1.0000 0.80625  0.20670  0.68025  Biso   1.000  H 
  H13      1.0000 0.30622  0.70683  0.68018  Biso   1.000  H 
  H14      1.0000 0.89891  0.73006  0.19985  Biso   1.000  H 
  H15      1.0000 0.71146  0.86372  0.16780  Biso   1.000  H 
  H16      1.0000 0.30622  0.29317  0.18018  Biso   1.000  H 
  H17      1.0000 0.87407  0.55714  0.83066  Biso   1.000  H 
  H18      1.0000 0.28853  0.13628  0.83220  Biso   1.000  H 
  H19      1.0000 0.39886  0.77003  0.69973  Biso   1.000  H 
  H20      1.0000 0.37407  0.94288  0.33068  Biso   1.000  H 
  H21      1.0000 0.62592  0.05712  0.66932  Biso   1.000  H 
  H22      1.0000 0.89891  0.26993  0.69986  Biso   1.000  H 
  H23      1.0000 0.87407  0.44287  0.33065  Biso   1.000  H 
  H24      1.0000 0.69379  0.29316  0.31983  Biso   1.000  H 
  H25      1.0000 0.78858  0.36359  0.33229  Biso   1.000  H 
  H26      1.0000 0.71147  0.13627  0.66782  Biso   1.000  H 
  H27      1.0000 0.28854  0.86371  0.33219  Biso   1.000  H 
  H28      1.0000 0.19375  0.79328  0.31976  Biso   1.000  H 
  H29      1.0000 0.10109  0.73006  0.30013  Biso   1.000  H 
  H30      1.0000 0.39886  0.22997  0.19972  Biso   1.000  H 
  H31      1.0000 0.21143  0.63640  0.66771  Biso   1.000  H 
  H32      1.0000 0.19375  0.20672  0.81977  Biso   1.000  H 
  N1       1.0000 0.06011  0.56838  0.87929  Biso   1.000  N 
  N2       1.0000 0.93989  0.43162  0.12070  Biso   1.000  N 
  N3       1.0000 0.55210  0.12284  0.07799  Biso   1.000  N 
  N4       1.0000 0.55210  0.87717  0.57799  Biso   1.000  N 
  N5       1.0000 0.56012  0.93163  0.37930  Biso   1.000  N 
  N6       1.0000 0.56012  0.06838  0.87929  Biso   1.000  N 
  N7       1.0000 0.44790  0.12284  0.42200  Biso   1.000  N 
  N8       1.0000 0.06011  0.43162  0.37929  Biso   1.000  N 
  N9       1.0000 0.93988  0.56839  0.62070  Biso   1.000  N 
  N10      1.0000 0.05208  0.37714  0.57795  Biso   1.000  N 
  N11      1.0000 0.05208  0.62286  0.07795  Biso   1.000  N 
  N12      1.0000 0.43988  0.93163  0.12070  Biso   1.000  N 
  N13      1.0000 0.44790  0.87716  0.92201  Biso   1.000  N 
  N14      1.0000 0.43988  0.06838  0.62070  Biso   1.000  N 
  N15      1.0000 0.94792  0.37714  0.92203  Biso   1.000  N 
  N16      1.0000 0.94792  0.62286  0.42204  Biso   1.000  N 
