data_image0
_cell_length_a       25.2148
_cell_length_b       6.90077
_cell_length_c       5.83198
_cell_angle_alpha    90
_cell_angle_beta     88.1201
_cell_angle_gamma    90.0012

_symmetry_space_group_name_H-M    "P 1"
_symmetry_int_tables_number       1

loop_
  _symmetry_equiv_pos_as_xyz
  'x, y, z'

loop_
  _atom_site_label
  _atom_site_occupancy
  _atom_site_fract_x
  _atom_site_fract_y
  _atom_site_fract_z
  _atom_site_thermal_displace_type
  _atom_site_B_iso_or_equiv
  _atom_site_type_symbol
  C1       1.0000 0.10859  0.65090  0.78409  Biso   1.000  C 
  C2       1.0000 0.27176  0.18639  0.70248  Biso   1.000  C 
  C3       1.0000 0.89141  0.34910  0.21592  Biso   1.000  C 
  C4       1.0000 0.86355  0.25281  0.04407  Biso   1.000  C 
  C5       1.0000 0.80596  0.24339  0.02572  Biso   1.000  C 
  C6       1.0000 0.71724  0.31978  0.17719  Biso   1.000  C 
  C7       1.0000 0.77176  0.31361  0.20248  Biso   1.000  C 
  C8       1.0000 0.39139  0.84918  0.21594  Biso   1.000  C 
  C9       1.0000 0.40331  0.70704  0.87689  Biso   1.000  C 
  C10      1.0000 0.30594  0.74349  0.02576  Biso   1.000  C 
  C11      1.0000 0.27174  0.81370  0.20252  Biso   1.000  C 
  C12      1.0000 0.09669  0.20706  0.62312  Biso   1.000  C 
  C13      1.0000 0.13647  0.25291  0.45591  Biso   1.000  C 
  C14      1.0000 0.19406  0.24349  0.47424  Biso   1.000  C 
  C15      1.0000 0.28278  0.31987  0.32276  Biso   1.000  C 
  C16      1.0000 0.22826  0.31370  0.29748  Biso   1.000  C 
  C17      1.0000 0.60860  0.84912  0.28409  Biso   1.000  C 
  C18      1.0000 0.36353  0.75290  0.04410  Biso   1.000  C 
  C19      1.0000 0.36355  0.24718  0.54406  Biso   1.000  C 
  C20      1.0000 0.21722  0.81987  0.17724  Biso   1.000  C 
  C21      1.0000 0.30597  0.25661  0.52572  Biso   1.000  C 
  C22      1.0000 0.10861  0.34919  0.28407  Biso   1.000  C 
  C23      1.0000 0.21724  0.18023  0.67720  Biso   1.000  C 
  C24      1.0000 0.59667  0.70697  0.62312  Biso   1.000  C 
  C25      1.0000 0.63646  0.75281  0.45594  Biso   1.000  C 
  C26      1.0000 0.69404  0.74339  0.47427  Biso   1.000  C 
  C27      1.0000 0.39141  0.15088  0.71590  Biso   1.000  C 
  C28      1.0000 0.90333  0.20696  0.87688  Biso   1.000  C 
  C29      1.0000 0.59669  0.29296  0.12309  Biso   1.000  C 
  C30      1.0000 0.69406  0.25652  0.97423  Biso   1.000  C 
  C31      1.0000 0.63647  0.24710  0.95589  Biso   1.000  C 
  C32      1.0000 0.60861  0.15082  0.78405  Biso   1.000  C 
  C33      1.0000 0.22824  0.68640  0.79752  Biso   1.000  C 
  C34      1.0000 0.28276  0.68022  0.82280  Biso   1.000  C 
  C35      1.0000 0.19403  0.75661  0.97428  Biso   1.000  C 
  C36      1.0000 0.78278  0.18013  0.82276  Biso   1.000  C 
  C37      1.0000 0.80595  0.75651  0.52576  Biso   1.000  C 
  C38      1.0000 0.77174  0.68631  0.70252  Biso   1.000  C 
  C39      1.0000 0.13645  0.74719  0.95593  Biso   1.000  C 
  C40      1.0000 0.09667  0.79304  0.12313  Biso   1.000  C 
  C41      1.0000 0.86353  0.74709  0.54412  Biso   1.000  C 
  C42      1.0000 0.72826  0.18631  0.79747  Biso   1.000  C 
  C43      1.0000 0.78276  0.81978  0.32280  Biso   1.000  C 
  C44      1.0000 0.89139  0.65082  0.71595  Biso   1.000  C 
  C45      1.0000 0.72824  0.81361  0.29752  Biso   1.000  C 
  C46      1.0000 0.90331  0.79295  0.37690  Biso   1.000  C 
  C47      1.0000 0.40333  0.29303  0.37687  Biso   1.000  C 
  C48      1.0000 0.71722  0.68013  0.67723  Biso   1.000  C 
  Fe1      1.0000 1.00000  0.55186  0.25001  Biso   1.000  Fe
  Fe2      1.0000 0.50000  0.05186  0.24999  Biso   1.000  Fe
  Fe3      1.0000 0.50000  0.94813  0.75000  Biso   1.000  Fe
  Fe4      1.0000 0.00000  0.44814  0.75000  Biso   1.000  Fe
  H1       1.0000 0.21229  0.36547  0.13738  Biso   1.000  H 
  H2       1.0000 0.30778  0.37425  0.18116  Biso   1.000  H 
  H3       1.0000 0.80776  0.87417  0.18122  Biso   1.000  H 
  H4       1.0000 0.59966  0.63339  0.78694  Biso   1.000  H 
  H5       1.0000 0.62330  0.91174  0.12377  Biso   1.000  H 
  H6       1.0000 0.69222  0.62575  0.81883  Biso   1.000  H 
  H7       1.0000 0.78771  0.63454  0.86262  Biso   1.000  H 
  H8       1.0000 0.59968  0.36654  0.28690  Biso   1.000  H 
  H9       1.0000 0.12331  0.41180  0.12374  Biso   1.000  H 
  H10      1.0000 0.12330  0.58828  0.62377  Biso   1.000  H 
  H11      1.0000 0.80778  0.12574  0.68117  Biso   1.000  H 
  H12      1.0000 0.30776  0.62583  0.68121  Biso   1.000  H 
  H13      1.0000 0.90032  0.86653  0.21308  Biso   1.000  H 
  H14      1.0000 0.37670  0.08827  0.87622  Biso   1.000  H 
  H15      1.0000 0.71227  0.86538  0.13743  Biso   1.000  H 
  H16      1.0000 0.09968  0.13349  0.78693  Biso   1.000  H 
  H17      1.0000 0.87669  0.58821  0.87627  Biso   1.000  H 
  H18      1.0000 0.71229  0.13454  0.63737  Biso   1.000  H 
  H19      1.0000 0.28773  0.13462  0.86257  Biso   1.000  H 
  H20      1.0000 0.40032  0.63346  0.71307  Biso   1.000  H 
  H21      1.0000 0.37669  0.91178  0.37626  Biso   1.000  H 
  H22      1.0000 0.62331  0.08821  0.62372  Biso   1.000  H 
  H23      1.0000 0.90035  0.13339  0.71306  Biso   1.000  H 
  H24      1.0000 0.87670  0.41172  0.37624  Biso   1.000  H 
  H25      1.0000 0.78773  0.36538  0.36257  Biso   1.000  H 
  H26      1.0000 0.28771  0.86547  0.36262  Biso   1.000  H 
  H27      1.0000 0.19222  0.87426  0.31883  Biso   1.000  H 
  H28      1.0000 0.09966  0.86662  0.28695  Biso   1.000  H 
  H29      1.0000 0.40035  0.36660  0.21304  Biso   1.000  H 
  H30      1.0000 0.21226  0.63462  0.63743  Biso   1.000  H 
  H31      1.0000 0.69224  0.37418  0.31877  Biso   1.000  H 
  H32      1.0000 0.19224  0.12583  0.81879  Biso   1.000  H 
  N1       1.0000 0.04946  0.72163  0.05893  Biso   1.000  N 
  N2       1.0000 0.05706  0.36643  0.34905  Biso   1.000  N 
  N3       1.0000 0.05704  0.63364  0.84906  Biso   1.000  N 
  N4       1.0000 0.94296  0.36636  0.15096  Biso   1.000  N 
  N5       1.0000 0.54948  0.22157  0.05889  Biso   1.000  N 
  N6       1.0000 0.55705  0.13358  0.84902  Biso   1.000  N 
  N7       1.0000 0.45054  0.22161  0.44108  Biso   1.000  N 
  N8       1.0000 0.44295  0.86641  0.15096  Biso   1.000  N 
  N9       1.0000 0.94294  0.63358  0.65097  Biso   1.000  N 
  N10      1.0000 0.04948  0.27845  0.55892  Biso   1.000  N 
  N11      1.0000 0.45052  0.77842  0.94108  Biso   1.000  N 
  N12      1.0000 0.44296  0.13362  0.65094  Biso   1.000  N 
  N13      1.0000 0.95054  0.27837  0.94110  Biso   1.000  N 
  N14      1.0000 0.55704  0.86638  0.34904  Biso   1.000  N 
  N15      1.0000 0.54946  0.77838  0.55890  Biso   1.000  N 
  N16      1.0000 0.95053  0.72156  0.44110  Biso   1.000  N 
