data_image0
_cell_length_a       25.1996
_cell_length_b       6.80369
_cell_length_c       5.74582
_cell_angle_alpha    90.0004
_cell_angle_beta     87.7576
_cell_angle_gamma    90.0022

_symmetry_space_group_name_H-M    "P 1"
_symmetry_int_tables_number       1

loop_
  _symmetry_equiv_pos_as_xyz
  'x, y, z'

loop_
  _atom_site_label
  _atom_site_occupancy
  _atom_site_fract_x
  _atom_site_fract_y
  _atom_site_fract_z
  _atom_site_thermal_displace_type
  _atom_site_B_iso_or_equiv
  _atom_site_type_symbol
  C1       1.0000 0.10892  0.65342  0.77851  Biso   1.000  C 
  C2       1.0000 0.27137  0.18845  0.70701  Biso   1.000  C 
  C3       1.0000 0.89109  0.34658  0.22149  Biso   1.000  C 
  C4       1.0000 0.86342  0.25009  0.04631  Biso   1.000  C 
  C5       1.0000 0.80587  0.24237  0.02668  Biso   1.000  C 
  C6       1.0000 0.71691  0.31852  0.18085  Biso   1.000  C 
  C7       1.0000 0.77138  0.31154  0.20700  Biso   1.000  C 
  C8       1.0000 0.39108  0.84662  0.22148  Biso   1.000  C 
  C9       1.0000 0.40347  0.70245  0.87713  Biso   1.000  C 
  C10      1.0000 0.30587  0.74243  0.02666  Biso   1.000  C 
  C11      1.0000 0.27137  0.81161  0.20698  Biso   1.000  C 
  C12      1.0000 0.09653  0.20248  0.62288  Biso   1.000  C 
  C13      1.0000 0.13659  0.25016  0.45371  Biso   1.000  C 
  C14      1.0000 0.19413  0.24244  0.47336  Biso   1.000  C 
  C15      1.0000 0.28311  0.31859  0.31918  Biso   1.000  C 
  C16      1.0000 0.22863  0.31162  0.29303  Biso   1.000  C 
  C17      1.0000 0.60892  0.84660  0.27851  Biso   1.000  C 
  C18      1.0000 0.36341  0.75014  0.04630  Biso   1.000  C 
  C19      1.0000 0.36342  0.24989  0.54631  Biso   1.000  C 
  C20      1.0000 0.21690  0.81860  0.18083  Biso   1.000  C 
  C21      1.0000 0.30587  0.25762  0.52669  Biso   1.000  C 
  C22      1.0000 0.10892  0.34666  0.27854  Biso   1.000  C 
  C23      1.0000 0.21690  0.18148  0.68086  Biso   1.000  C 
  C24      1.0000 0.59652  0.70244  0.62286  Biso   1.000  C 
  C25      1.0000 0.63658  0.75011  0.45369  Biso   1.000  C 
  C26      1.0000 0.69413  0.74238  0.47331  Biso   1.000  C 
  C27      1.0000 0.39108  0.15340  0.72148  Biso   1.000  C 
  C28      1.0000 0.90348  0.20243  0.87713  Biso   1.000  C 
  C29      1.0000 0.59653  0.29755  0.12287  Biso   1.000  C 
  C30      1.0000 0.69414  0.25756  0.97334  Biso   1.000  C 
  C31      1.0000 0.63659  0.24986  0.95370  Biso   1.000  C 
  C32      1.0000 0.60892  0.15338  0.77852  Biso   1.000  C 
  C33      1.0000 0.22863  0.68845  0.79299  Biso   1.000  C 
  C34      1.0000 0.28310  0.68147  0.81915  Biso   1.000  C 
  C35      1.0000 0.19413  0.75763  0.97332  Biso   1.000  C 
  C36      1.0000 0.78311  0.18140  0.81917  Biso   1.000  C 
  C37      1.0000 0.80587  0.75756  0.52665  Biso   1.000  C 
  C38      1.0000 0.77136  0.68837  0.70698  Biso   1.000  C 
  C39      1.0000 0.13658  0.74991  0.95370  Biso   1.000  C 
  C40      1.0000 0.09652  0.79757  0.12287  Biso   1.000  C 
  C41      1.0000 0.86341  0.74984  0.54629  Biso   1.000  C 
  C42      1.0000 0.72863  0.18838  0.79302  Biso   1.000  C 
  C43      1.0000 0.78310  0.81852  0.31915  Biso   1.000  C 
  C44      1.0000 0.89108  0.65336  0.72147  Biso   1.000  C 
  C45      1.0000 0.72863  0.81155  0.29299  Biso   1.000  C 
  C46      1.0000 0.90347  0.79752  0.37713  Biso   1.000  C 
  C47      1.0000 0.40348  0.29755  0.37713  Biso   1.000  C 
  C48      1.0000 0.71689  0.68141  0.68082  Biso   1.000  C 
  Fe1      1.0000 0.00000  0.55288  0.25000  Biso   1.000  Fe
  Fe2      1.0000 0.50000  0.05288  0.25000  Biso   1.000  Fe
  Fe3      1.0000 0.50000  0.94713  0.74999  Biso   1.000  Fe
  Fe4      1.0000 1.00000  0.44713  0.75000  Biso   1.000  Fe
  H1       1.0000 0.21293  0.36159  0.12940  Biso   1.000  H 
  H2       1.0000 0.30842  0.37160  0.17469  Biso   1.000  H 
  H3       1.0000 0.80841  0.87153  0.17467  Biso   1.000  H 
  H4       1.0000 0.59928  0.62815  0.78934  Biso   1.000  H 
  H5       1.0000 0.62390  0.91053  0.11609  Biso   1.000  H 
  H6       1.0000 0.69158  0.62840  0.82530  Biso   1.000  H 
  H7       1.0000 0.78707  0.63841  0.87061  Biso   1.000  H 
  H8       1.0000 0.59930  0.37184  0.28935  Biso   1.000  H 
  H9       1.0000 0.12391  0.41059  0.11613  Biso   1.000  H 
  H10      1.0000 0.12390  0.58951  0.61608  Biso   1.000  H 
  H11      1.0000 0.80842  0.12839  0.67469  Biso   1.000  H 
  H12      1.0000 0.30841  0.62846  0.67467  Biso   1.000  H 
  H13      1.0000 0.90071  0.87182  0.21065  Biso   1.000  H 
  H14      1.0000 0.37610  0.08947  0.88390  Biso   1.000  H 
  H15      1.0000 0.71292  0.86152  0.12938  Biso   1.000  H 
  H16      1.0000 0.09929  0.12818  0.78936  Biso   1.000  H 
  H17      1.0000 0.87609  0.58942  0.88389  Biso   1.000  H 
  H18      1.0000 0.71293  0.13842  0.62938  Biso   1.000  H 
  H19      1.0000 0.28708  0.13848  0.87062  Biso   1.000  H 
  H20      1.0000 0.40071  0.62816  0.71065  Biso   1.000  H 
  H21      1.0000 0.37609  0.91056  0.38389  Biso   1.000  H 
  H22      1.0000 0.62391  0.08944  0.61610  Biso   1.000  H 
  H23      1.0000 0.90071  0.12815  0.71065  Biso   1.000  H 
  H24      1.0000 0.87610  0.41050  0.38392  Biso   1.000  H 
  H25      1.0000 0.78708  0.36151  0.37062  Biso   1.000  H 
  H26      1.0000 0.28708  0.86157  0.37061  Biso   1.000  H 
  H27      1.0000 0.19158  0.87160  0.32531  Biso   1.000  H 
  H28      1.0000 0.09929  0.87186  0.28935  Biso   1.000  H 
  H29      1.0000 0.40072  0.37185  0.21065  Biso   1.000  H 
  H30      1.0000 0.21292  0.63850  0.62937  Biso   1.000  H 
  H31      1.0000 0.69159  0.37154  0.32533  Biso   1.000  H 
  H32      1.0000 0.19159  0.12847  0.82534  Biso   1.000  H 
  N1       1.0000 0.04928  0.72690  0.05658  Biso   1.000  N 
  N2       1.0000 0.05716  0.36263  0.34359  Biso   1.000  N 
  N3       1.0000 0.05715  0.63744  0.84358  Biso   1.000  N 
  N4       1.0000 0.94285  0.36257  0.15642  Biso   1.000  N 
  N5       1.0000 0.54929  0.22687  0.05657  Biso   1.000  N 
  N6       1.0000 0.55716  0.13740  0.84358  Biso   1.000  N 
  N7       1.0000 0.45072  0.22688  0.44342  Biso   1.000  N 
  N8       1.0000 0.44284  0.86260  0.15641  Biso   1.000  N 
  N9       1.0000 0.94284  0.63739  0.65641  Biso   1.000  N 
  N10      1.0000 0.04929  0.27315  0.55658  Biso   1.000  N 
  N11      1.0000 0.45071  0.77313  0.94342  Biso   1.000  N 
  N12      1.0000 0.44284  0.13742  0.65641  Biso   1.000  N 
  N13      1.0000 0.95072  0.27312  0.94342  Biso   1.000  N 
  N14      1.0000 0.55716  0.86258  0.34357  Biso   1.000  N 
  N15      1.0000 0.54928  0.77312  0.55657  Biso   1.000  N 
  N16      1.0000 0.95071  0.72685  0.44342  Biso   1.000  N 
