data_image0
_cell_length_a       25.1394
_cell_length_b       8.03213
_cell_length_c       6.35174
_cell_angle_alpha    90.0022
_cell_angle_beta     90.0217
_cell_angle_gamma    90.0017

_symmetry_space_group_name_H-M    "P 1"
_symmetry_int_tables_number       1

loop_
  _symmetry_equiv_pos_as_xyz
  'x, y, z'

loop_
  _atom_site_label
  _atom_site_occupancy
  _atom_site_fract_x
  _atom_site_fract_y
  _atom_site_fract_z
  _atom_site_thermal_displace_type
  _atom_site_B_iso_or_equiv
  _atom_site_type_symbol
  C1       1.0000 0.10715  0.63149  0.81294  Biso   1.000  C 
  C2       1.0000 0.21742  0.16020  0.63624  Biso   1.000  C 
  C3       1.0000 0.27244  0.14911  0.65381  Biso   1.000  C 
  C4       1.0000 0.89285  0.36853  0.18706  Biso   1.000  C 
  C5       1.0000 0.86405  0.28554  0.02835  Biso   1.000  C 
  C6       1.0000 0.80642  0.26163  0.01795  Biso   1.000  C 
  C7       1.0000 0.71742  0.33978  0.13634  Biso   1.000  C 
  C8       1.0000 0.77244  0.35086  0.15390  Biso   1.000  C 
  C9       1.0000 0.39285  0.86851  0.18705  Biso   1.000  C 
  C10      1.0000 0.40236  0.75746  0.87018  Biso   1.000  C 
  C11      1.0000 0.30643  0.76168  0.01789  Biso   1.000  C 
  C12      1.0000 0.27244  0.85091  0.15383  Biso   1.000  C 
  C13      1.0000 0.10716  0.36856  0.31293  Biso   1.000  C 
  C14      1.0000 0.09766  0.25747  0.62977  Biso   1.000  C 
  C15      1.0000 0.13596  0.28559  0.47164  Biso   1.000  C 
  C16      1.0000 0.19359  0.26166  0.48203  Biso   1.000  C 
  C17      1.0000 0.28259  0.33982  0.36371  Biso   1.000  C 
  C18      1.0000 0.22757  0.35091  0.34613  Biso   1.000  C 
  C19      1.0000 0.60715  0.86847  0.31297  Biso   1.000  C 
  C20      1.0000 0.36405  0.78556  0.02831  Biso   1.000  C 
  C21      1.0000 0.36405  0.21446  0.52834  Biso   1.000  C 
  C22      1.0000 0.21743  0.83984  0.13627  Biso   1.000  C 
  C23      1.0000 0.30643  0.23836  0.51792  Biso   1.000  C 
  C24      1.0000 0.59765  0.75742  0.62984  Biso   1.000  C 
  C25      1.0000 0.63595  0.78552  0.47170  Biso   1.000  C 
  C26      1.0000 0.69357  0.76161  0.48210  Biso   1.000  C 
  C27      1.0000 0.40236  0.24255  0.37021  Biso   1.000  C 
  C28      1.0000 0.39285  0.13150  0.68708  Biso   1.000  C 
  C29      1.0000 0.90235  0.25743  0.87021  Biso   1.000  C 
  C30      1.0000 0.59765  0.24254  0.12984  Biso   1.000  C 
  C31      1.0000 0.69358  0.23833  0.98211  Biso   1.000  C 
  C32      1.0000 0.63595  0.21445  0.97170  Biso   1.000  C 
  C33      1.0000 0.60715  0.13150  0.81296  Biso   1.000  C 
  C34      1.0000 0.22756  0.64916  0.84610  Biso   1.000  C 
  C35      1.0000 0.28258  0.66024  0.86366  Biso   1.000  C 
  C36      1.0000 0.19358  0.73840  0.98204  Biso   1.000  C 
  C37      1.0000 0.78258  0.16019  0.86372  Biso   1.000  C 
  C38      1.0000 0.80641  0.73831  0.51796  Biso   1.000  C 
  C39      1.0000 0.71741  0.66014  0.63627  Biso   1.000  C 
  C40      1.0000 0.77242  0.64904  0.65384  Biso   1.000  C 
  C41      1.0000 0.13595  0.71447  0.97164  Biso   1.000  C 
  C42      1.0000 0.09765  0.74259  0.12979  Biso   1.000  C 
  C43      1.0000 0.86404  0.71442  0.52834  Biso   1.000  C 
  C44      1.0000 0.72756  0.14910  0.84616  Biso   1.000  C 
  C45      1.0000 0.78257  0.83978  0.36374  Biso   1.000  C 
  C46      1.0000 0.89284  0.63145  0.68705  Biso   1.000  C 
  C47      1.0000 0.72756  0.85087  0.34618  Biso   1.000  C 
  C48      1.0000 0.90234  0.74253  0.37021  Biso   1.000  C 
  Fe1      1.0000 0.00000  0.54030  0.25000  Biso   1.000  Fe
  Fe2      1.0000 0.50000  0.04026  0.25003  Biso   1.000  Fe
  Fe3      1.0000 0.50000  0.95974  0.75000  Biso   1.000  Fe
  Fe4      1.0000 0.00000  0.45972  0.74999  Biso   1.000  Fe
  H1       1.0000 0.60217  0.29926  0.28410  Biso   1.000  H 
  H2       1.0000 0.89781  0.79927  0.21596  Biso   1.000  H 
  H3       1.0000 0.30726  0.58758  0.75630  Biso   1.000  H 
  H4       1.0000 0.80726  0.08756  0.75636  Biso   1.000  H 
  H5       1.0000 0.12054  0.58615  0.66093  Biso   1.000  H 
  H6       1.0000 0.12055  0.41390  0.16093  Biso   1.000  H 
  H7       1.0000 0.10218  0.20075  0.78402  Biso   1.000  H 
  H8       1.0000 0.21087  0.43376  0.22724  Biso   1.000  H 
  H9       1.0000 0.78913  0.56619  0.77268  Biso   1.000  H 
  H10      1.0000 0.69273  0.58748  0.74356  Biso   1.000  H 
  H11      1.0000 0.62053  0.91377  0.16094  Biso   1.000  H 
  H12      1.0000 0.60217  0.70070  0.78408  Biso   1.000  H 
  H13      1.0000 0.80726  0.91245  0.25640  Biso   1.000  H 
  H14      1.0000 0.30728  0.41250  0.25639  Biso   1.000  H 
  H15      1.0000 0.71085  0.93372  0.22728  Biso   1.000  H 
  H16      1.0000 0.37946  0.08621  0.83911  Biso   1.000  H 
  H17      1.0000 0.87946  0.58612  0.83908  Biso   1.000  H 
  H18      1.0000 0.69274  0.41243  0.24369  Biso   1.000  H 
  H19      1.0000 0.21085  0.56632  0.72720  Biso   1.000  H 
  H20      1.0000 0.39784  0.29927  0.21596  Biso   1.000  H 
  H21      1.0000 0.10218  0.79933  0.28404  Biso   1.000  H 
  H22      1.0000 0.19274  0.91249  0.24361  Biso   1.000  H 
  H23      1.0000 0.28915  0.93373  0.27275  Biso   1.000  H 
  H24      1.0000 0.71085  0.06628  0.72725  Biso   1.000  H 
  H25      1.0000 0.19274  0.08754  0.74355  Biso   1.000  H 
  H26      1.0000 0.87946  0.41385  0.33908  Biso   1.000  H 
  H27      1.0000 0.89782  0.20068  0.71597  Biso   1.000  H 
  H28      1.0000 0.62053  0.08620  0.66091  Biso   1.000  H 
  H29      1.0000 0.37947  0.91381  0.33908  Biso   1.000  H 
  H30      1.0000 0.39783  0.70074  0.71592  Biso   1.000  H 
  H31      1.0000 0.28914  0.06626  0.77269  Biso   1.000  H 
  H32      1.0000 0.78915  0.43370  0.27278  Biso   1.000  H 
  N1       1.0000 0.05642  0.39216  0.37512  Biso   1.000  N 
  N2       1.0000 0.05642  0.60788  0.87514  Biso   1.000  N 
  N3       1.0000 0.94358  0.39214  0.12485  Biso   1.000  N 
  N4       1.0000 0.55041  0.17609  0.07214  Biso   1.000  N 
  N5       1.0000 0.55041  0.82389  0.57216  Biso   1.000  N 
  N6       1.0000 0.55641  0.10792  0.87516  Biso   1.000  N 
  N7       1.0000 0.44959  0.17608  0.42790  Biso   1.000  N 
  N8       1.0000 0.05042  0.67610  0.07211  Biso   1.000  N 
  N9       1.0000 0.94358  0.60786  0.62484  Biso   1.000  N 
  N10      1.0000 0.05042  0.32395  0.57209  Biso   1.000  N 
  N11      1.0000 0.44359  0.89210  0.12486  Biso   1.000  N 
  N12      1.0000 0.44959  0.82391  0.92789  Biso   1.000  N 
  N13      1.0000 0.44359  0.10791  0.62487  Biso   1.000  N 
  N14      1.0000 0.94958  0.32393  0.92788  Biso   1.000  N 
  N15      1.0000 0.55641  0.89207  0.37519  Biso   1.000  N 
  N16      1.0000 0.94958  0.67607  0.42787  Biso   1.000  N 
