data_image0
_cell_length_a       24.8068
_cell_length_b       10.2317
_cell_length_c       5.93106
_cell_angle_alpha    90.0001
_cell_angle_beta     93.3084
_cell_angle_gamma    90.0001

_symmetry_space_group_name_H-M    "P 1"
_symmetry_int_tables_number       1

loop_
  _symmetry_equiv_pos_as_xyz
  'x, y, z'

loop_
  _atom_site_label
  _atom_site_occupancy
  _atom_site_fract_x
  _atom_site_fract_y
  _atom_site_fract_z
  _atom_site_thermal_displace_type
  _atom_site_B_iso_or_equiv
  _atom_site_type_symbol
  C1       1.0000 0.10897  0.60552  0.81258  Biso   1.000  C 
  C2       1.0000 0.40220  0.20718  0.36326  Biso   1.000  C 
  C3       1.0000 0.39103  0.10549  0.68734  Biso   1.000  C 
  C4       1.0000 0.90220  0.29280  0.86333  Biso   1.000  C 
  C5       1.0000 0.59779  0.20719  0.13674  Biso   1.000  C 
  C6       1.0000 0.69374  0.21984  0.98688  Biso   1.000  C 
  C7       1.0000 0.63670  0.18355  0.97724  Biso   1.000  C 
  C8       1.0000 0.60898  0.10550  0.81267  Biso   1.000  C 
  C9       1.0000 0.22765  0.67995  0.81695  Biso   1.000  C 
  C10      1.0000 0.28243  0.70925  0.82983  Biso   1.000  C 
  C11      1.0000 0.19373  0.71990  0.98672  Biso   1.000  C 
  C12      1.0000 0.78245  0.20917  0.83000  Biso   1.000  C 
  C13      1.0000 0.90220  0.70721  0.36334  Biso   1.000  C 
  C14      1.0000 0.80627  0.71991  0.51326  Biso   1.000  C 
  C15      1.0000 0.71757  0.70925  0.67015  Biso   1.000  C 
  C16      1.0000 0.77235  0.67994  0.68304  Biso   1.000  C 
  C17      1.0000 0.13669  0.68358  0.97711  Biso   1.000  C 
  C18      1.0000 0.09780  0.70721  0.13666  Biso   1.000  C 
  C19      1.0000 0.86331  0.68358  0.52289  Biso   1.000  C 
  C20      1.0000 0.72766  0.17985  0.81713  Biso   1.000  C 
  C21      1.0000 0.78244  0.79083  0.32999  Biso   1.000  C 
  C22      1.0000 0.89103  0.60552  0.68742  Biso   1.000  C 
  C23      1.0000 0.72766  0.82015  0.31712  Biso   1.000  C 
  C24      1.0000 0.69374  0.78016  0.48686  Biso   1.000  C 
  C25      1.0000 0.63670  0.81646  0.47722  Biso   1.000  C 
  C26      1.0000 0.59780  0.79282  0.63673  Biso   1.000  C 
  C27      1.0000 0.30626  0.21984  0.51311  Biso   1.000  C 
  C28      1.0000 0.21755  0.20917  0.67000  Biso   1.000  C 
  C29      1.0000 0.27234  0.17984  0.68287  Biso   1.000  C 
  C30      1.0000 0.89103  0.39448  0.18742  Biso   1.000  C 
  C31      1.0000 0.86331  0.31642  0.02288  Biso   1.000  C 
  C32      1.0000 0.80627  0.28009  0.01328  Biso   1.000  C 
  C33      1.0000 0.71757  0.29074  0.17017  Biso   1.000  C 
  C34      1.0000 0.77236  0.32005  0.18306  Biso   1.000  C 
  C35      1.0000 0.39103  0.89451  0.18734  Biso   1.000  C 
  C36      1.0000 0.40220  0.79282  0.86326  Biso   1.000  C 
  C37      1.0000 0.30626  0.78016  0.01311  Biso   1.000  C 
  C38      1.0000 0.27234  0.82015  0.18288  Biso   1.000  C 
  C39      1.0000 0.10897  0.39448  0.31259  Biso   1.000  C 
  C40      1.0000 0.09779  0.29280  0.63666  Biso   1.000  C 
  C41      1.0000 0.13669  0.31642  0.47712  Biso   1.000  C 
  C42      1.0000 0.19373  0.28010  0.48671  Biso   1.000  C 
  C43      1.0000 0.28243  0.29074  0.32983  Biso   1.000  C 
  C44      1.0000 0.22765  0.32006  0.31694  Biso   1.000  C 
  C45      1.0000 0.60898  0.89451  0.31266  Biso   1.000  C 
  C46      1.0000 0.36331  0.81646  0.02277  Biso   1.000  C 
  C47      1.0000 0.36330  0.18354  0.52277  Biso   1.000  C 
  C48      1.0000 0.21756  0.79083  0.17001  Biso   1.000  C 
  Fe1      1.0000 0.00000  0.46083  0.75000  Biso   1.000  Fe
  Fe2      1.0000 0.50000  0.96085  0.75000  Biso   1.000  Fe
  Fe3      1.0000 0.50000  0.03915  0.24999  Biso   1.000  Fe
  Fe4      1.0000 0.00000  0.53917  0.25000  Biso   1.000  Fe
  H1       1.0000 0.19293  0.17653  0.80581  Biso   1.000  H 
  H2       1.0000 0.21110  0.62424  0.67218  Biso   1.000  H 
  H3       1.0000 0.39881  0.26144  0.20568  Biso   1.000  H 
  H4       1.0000 0.10119  0.76147  0.29423  Biso   1.000  H 
  H5       1.0000 0.19293  0.82347  0.30581  Biso   1.000  H 
  H6       1.0000 0.28889  0.87587  0.32766  Biso   1.000  H 
  H7       1.0000 0.71111  0.12413  0.67234  Biso   1.000  H 
  H8       1.0000 0.78890  0.37575  0.32783  Biso   1.000  H 
  H9       1.0000 0.87696  0.43698  0.34109  Biso   1.000  H 
  H10      1.0000 0.89881  0.23854  0.70577  Biso   1.000  H 
  H11      1.0000 0.62306  0.06299  0.65900  Biso   1.000  H 
  H12      1.0000 0.37695  0.93701  0.34100  Biso   1.000  H 
  H13      1.0000 0.39882  0.73855  0.70568  Biso   1.000  H 
  H14      1.0000 0.28889  0.12412  0.82766  Biso   1.000  H 
  H15      1.0000 0.87696  0.56303  0.84109  Biso   1.000  H 
  H16      1.0000 0.69295  0.32335  0.30599  Biso   1.000  H 
  H17      1.0000 0.71111  0.87586  0.17235  Biso   1.000  H 
  H18      1.0000 0.30705  0.32334  0.19403  Biso   1.000  H 
  H19      1.0000 0.80707  0.82347  0.19421  Biso   1.000  H 
  H20      1.0000 0.60118  0.73855  0.79430  Biso   1.000  H 
  H21      1.0000 0.62305  0.93701  0.15900  Biso   1.000  H 
  H22      1.0000 0.69294  0.67664  0.80598  Biso   1.000  H 
  H23      1.0000 0.78890  0.62423  0.82782  Biso   1.000  H 
  H24      1.0000 0.37695  0.06299  0.84100  Biso   1.000  H 
  H25      1.0000 0.21110  0.37575  0.17220  Biso   1.000  H 
  H26      1.0000 0.10119  0.23853  0.79423  Biso   1.000  H 
  H27      1.0000 0.12304  0.43699  0.15892  Biso   1.000  H 
  H28      1.0000 0.12304  0.56302  0.65892  Biso   1.000  H 
  H29      1.0000 0.80707  0.17653  0.69420  Biso   1.000  H 
  H30      1.0000 0.30705  0.67665  0.69402  Biso   1.000  H 
  H31      1.0000 0.89881  0.76147  0.20577  Biso   1.000  H 
  H32      1.0000 0.60118  0.26146  0.29430  Biso   1.000  H 
  N1       1.0000 0.94893  0.35373  0.92730  Biso   1.000  N 
  N2       1.0000 0.44186  0.08352  0.62770  Biso   1.000  N 
  N3       1.0000 0.44894  0.85373  0.92728  Biso   1.000  N 
  N4       1.0000 0.44186  0.91648  0.12769  Biso   1.000  N 
  N5       1.0000 0.05107  0.64627  0.07268  Biso   1.000  N 
  N6       1.0000 0.05107  0.35373  0.57269  Biso   1.000  N 
  N7       1.0000 0.94185  0.58353  0.62773  Biso   1.000  N 
  N8       1.0000 0.55815  0.91648  0.37231  Biso   1.000  N 
  N9       1.0000 0.44894  0.14627  0.42727  Biso   1.000  N 
  N10      1.0000 0.55815  0.08353  0.87232  Biso   1.000  N 
  N11      1.0000 0.55106  0.85373  0.57272  Biso   1.000  N 
  N12      1.0000 0.55106  0.14628  0.07273  Biso   1.000  N 
  N13      1.0000 0.94185  0.41647  0.12772  Biso   1.000  N 
  N14      1.0000 0.05815  0.58352  0.87227  Biso   1.000  N 
  N15      1.0000 0.05815  0.41647  0.37228  Biso   1.000  N 
  N16      1.0000 0.94893  0.64627  0.42731  Biso   1.000  N 
