data_image0
_cell_length_a       19.768
_cell_length_b       18.57
_cell_length_c       6.69494
_cell_angle_alpha    90.0012
_cell_angle_beta     97.7484
_cell_angle_gamma    89.9997

_symmetry_space_group_name_H-M    "P 1"
_symmetry_int_tables_number       1

loop_
  _symmetry_equiv_pos_as_xyz
  'x, y, z'

loop_
  _atom_site_label
  _atom_site_occupancy
  _atom_site_fract_x
  _atom_site_fract_y
  _atom_site_fract_z
  _atom_site_thermal_displace_type
  _atom_site_B_iso_or_equiv
  _atom_site_type_symbol
  C1       1.0000 0.11879  0.59377  0.84763  Biso   1.000  C 
  C2       1.0000 0.73048  0.79148  0.32978  Biso   1.000  C 
  C3       1.0000 0.39760  0.12886  0.34693  Biso   1.000  C 
  C4       1.0000 0.38113  0.09370  0.65214  Biso   1.000  C 
  C5       1.0000 0.89765  0.37104  0.84714  Biso   1.000  C 
  C6       1.0000 0.60244  0.12884  0.15317  Biso   1.000  C 
  C7       1.0000 0.69706  0.19728  0.00019  Biso   1.000  C 
  C8       1.0000 0.64300  0.14343  0.00044  Biso   1.000  C 
  C9       1.0000 0.61888  0.09369  0.84792  Biso   1.000  C 
  C10      1.0000 0.23049  0.70851  0.82951  Biso   1.000  C 
  C11      1.0000 0.28186  0.75968  0.82943  Biso   1.000  C 
  C12      1.0000 0.19703  0.69730  0.99988  Biso   1.000  C 
  C13      1.0000 0.88120  0.59374  0.65232  Biso   1.000  C 
  C14      1.0000 0.78187  0.25966  0.82972  Biso   1.000  C 
  C15      1.0000 0.89766  0.62896  0.34715  Biso   1.000  C 
  C16      1.0000 0.80295  0.69728  0.50008  Biso   1.000  C 
  C17      1.0000 0.71811  0.75963  0.67053  Biso   1.000  C 
  C18      1.0000 0.76949  0.70847  0.67045  Biso   1.000  C 
  C19      1.0000 0.14293  0.64352  0.00011  Biso   1.000  C 
  C20      1.0000 0.10235  0.62896  0.15284  Biso   1.000  C 
  C21      1.0000 0.85707  0.64350  0.49987  Biso   1.000  C 
  C22      1.0000 0.73050  0.20849  0.82980  Biso   1.000  C 
  C23      1.0000 0.78185  0.74031  0.32970  Biso   1.000  C 
  C24      1.0000 0.69705  0.80270  0.50019  Biso   1.000  C 
  C25      1.0000 0.64299  0.85654  0.50042  Biso   1.000  C 
  C26      1.0000 0.60242  0.87113  0.65315  Biso   1.000  C 
  C27      1.0000 0.35702  0.14345  0.49963  Biso   1.000  C 
  C28      1.0000 0.30296  0.19729  0.49983  Biso   1.000  C 
  C29      1.0000 0.21815  0.25969  0.67027  Biso   1.000  C 
  C30      1.0000 0.26952  0.20852  0.67022  Biso   1.000  C 
  C31      1.0000 0.88120  0.40625  0.15232  Biso   1.000  C 
  C32      1.0000 0.85706  0.35649  0.99986  Biso   1.000  C 
  C33      1.0000 0.80295  0.30271  0.00007  Biso   1.000  C 
  C34      1.0000 0.71810  0.24037  0.17050  Biso   1.000  C 
  C35      1.0000 0.76947  0.29154  0.17042  Biso   1.000  C 
  C36      1.0000 0.38111  0.90631  0.15211  Biso   1.000  C 
  C37      1.0000 0.39757  0.87116  0.84688  Biso   1.000  C 
  C38      1.0000 0.30293  0.80274  0.99979  Biso   1.000  C 
  C39      1.0000 0.21814  0.74032  0.17029  Biso   1.000  C 
  C40      1.0000 0.26951  0.79149  0.17023  Biso   1.000  C 
  C41      1.0000 0.11879  0.40624  0.34762  Biso   1.000  C 
  C42      1.0000 0.10236  0.37104  0.65281  Biso   1.000  C 
  C43      1.0000 0.14294  0.35649  0.50008  Biso   1.000  C 
  C44      1.0000 0.19705  0.30271  0.49987  Biso   1.000  C 
  C45      1.0000 0.28191  0.24036  0.32948  Biso   1.000  C 
  C46      1.0000 0.23053  0.29153  0.32953  Biso   1.000  C 
  C47      1.0000 0.61888  0.90628  0.34792  Biso   1.000  C 
  C48      1.0000 0.35699  0.85657  0.99958  Biso   1.000  C 
  Fe1      1.0000 1.00000  0.48661  0.75000  Biso   1.000  Fe
  Fe2      1.0000 0.50001  0.98666  0.75003  Biso   1.000  Fe
  Fe3      1.0000 0.50001  0.01333  0.25005  Biso   1.000  Fe
  Fe4      1.0000 1.00000  0.51339  0.24998  Biso   1.000  Fe
  H1       1.0000 0.78381  0.32359  0.30615  Biso   1.000  H 
  H2       1.0000 0.39764  0.84586  0.70066  Biso   1.000  H 
  H3       1.0000 0.36481  0.91541  0.29865  Biso   1.000  H 
  H4       1.0000 0.63517  0.08460  0.70134  Biso   1.000  H 
  H5       1.0000 0.89778  0.34564  0.70108  Biso   1.000  H 
  H6       1.0000 0.86495  0.41532  0.29896  Biso   1.000  H 
  H7       1.0000 0.69386  0.23382  0.30646  Biso   1.000  H 
  H8       1.0000 0.19394  0.26629  0.80625  Biso   1.000  H 
  H9       1.0000 0.71613  0.17648  0.69405  Biso   1.000  H 
  H10      1.0000 0.28391  0.82348  0.30602  Biso   1.000  H 
  H11      1.0000 0.19395  0.73371  0.30630  Biso   1.000  H 
  H12      1.0000 0.10223  0.65435  0.29892  Biso   1.000  H 
  H13      1.0000 0.39766  0.15417  0.20073  Biso   1.000  H 
  H14      1.0000 0.21611  0.67649  0.69375  Biso   1.000  H 
  H15      1.0000 0.86495  0.58466  0.79894  Biso   1.000  H 
  H16      1.0000 0.28390  0.17653  0.80602  Biso   1.000  H 
  H17      1.0000 0.71609  0.82348  0.19400  Biso   1.000  H 
  H18      1.0000 0.89779  0.65436  0.20109  Biso   1.000  H 
  H19      1.0000 0.30607  0.76627  0.69344  Biso   1.000  H 
  H20      1.0000 0.80608  0.26625  0.69375  Biso   1.000  H 
  H21      1.0000 0.13503  0.58470  0.70098  Biso   1.000  H 
  H22      1.0000 0.13503  0.41530  0.20096  Biso   1.000  H 
  H23      1.0000 0.10224  0.34565  0.79889  Biso   1.000  H 
  H24      1.0000 0.30614  0.23380  0.19354  Biso   1.000  H 
  H25      1.0000 0.60239  0.15413  0.29939  Biso   1.000  H 
  H26      1.0000 0.36482  0.08460  0.79869  Biso   1.000  H 
  H27      1.0000 0.78385  0.67644  0.80619  Biso   1.000  H 
  H28      1.0000 0.69389  0.76621  0.80650  Biso   1.000  H 
  H29      1.0000 0.63517  0.91538  0.20136  Biso   1.000  H 
  H30      1.0000 0.60236  0.84582  0.79935  Biso   1.000  H 
  H31      1.0000 0.80606  0.73371  0.19371  Biso   1.000  H 
  H32      1.0000 0.21617  0.32356  0.19380  Biso   1.000  H 
  N1       1.0000 0.43166  0.05330  0.59381  Biso   1.000  N 
  N2       1.0000 0.44187  0.92505  0.90427  Biso   1.000  N 
  N3       1.0000 0.43165  0.94670  0.09379  Biso   1.000  N 
  N4       1.0000 0.05807  0.57505  0.09556  Biso   1.000  N 
  N5       1.0000 0.06827  0.44664  0.40602  Biso   1.000  N 
  N6       1.0000 0.05807  0.42495  0.59554  Biso   1.000  N 
  N7       1.0000 0.93172  0.55334  0.59392  Biso   1.000  N 
  N8       1.0000 0.94193  0.42495  0.90442  Biso   1.000  N 
  N9       1.0000 0.44188  0.07497  0.40430  Biso   1.000  N 
  N10      1.0000 0.56835  0.05329  0.90626  Biso   1.000  N 
  N11      1.0000 0.56834  0.94668  0.40628  Biso   1.000  N 
  N12      1.0000 0.55813  0.92502  0.59580  Biso   1.000  N 
  N13      1.0000 0.55815  0.07495  0.09580  Biso   1.000  N 
  N14      1.0000 0.93172  0.44665  0.09392  Biso   1.000  N 
  N15      1.0000 0.06828  0.55336  0.90604  Biso   1.000  N 
  N16      1.0000 0.94194  0.57505  0.40442  Biso   1.000  N 
