data_image0
_cell_length_a       25.0213
_cell_length_b       8.91435
_cell_length_c       6.27823
_cell_angle_alpha    90.0025
_cell_angle_beta     91.1465
_cell_angle_gamma    89.9982

_symmetry_space_group_name_H-M    "P 1"
_symmetry_int_tables_number       1

loop_
  _symmetry_equiv_pos_as_xyz
  'x, y, z'

loop_
  _atom_site_label
  _atom_site_occupancy
  _atom_site_fract_x
  _atom_site_fract_y
  _atom_site_fract_z
  _atom_site_thermal_displace_type
  _atom_site_B_iso_or_equiv
  _atom_site_type_symbol
  C1       1.0000 0.10765  0.61908  0.81565  Biso   1.000  C 
  C2       1.0000 0.21622  0.16842  0.63045  Biso   1.000  C 
  C3       1.0000 0.27124  0.14756  0.64557  Biso   1.000  C 
  C4       1.0000 0.89236  0.38092  0.18419  Biso   1.000  C 
  C5       1.0000 0.86383  0.30158  0.02477  Biso   1.000  C 
  C6       1.0000 0.80638  0.27149  0.01538  Biso   1.000  C 
  C7       1.0000 0.71625  0.33156  0.13047  Biso   1.000  C 
  C8       1.0000 0.77126  0.35245  0.14548  Biso   1.000  C 
  C9       1.0000 0.39236  0.88092  0.18440  Biso   1.000  C 
  C10      1.0000 0.40216  0.77668  0.86732  Biso   1.000  C 
  C11      1.0000 0.30639  0.77140  0.01559  Biso   1.000  C 
  C12      1.0000 0.27125  0.85238  0.14561  Biso   1.000  C 
  C13      1.0000 0.10763  0.38081  0.31558  Biso   1.000  C 
  C14      1.0000 0.09783  0.27663  0.63269  Biso   1.000  C 
  C15      1.0000 0.13615  0.30145  0.47498  Biso   1.000  C 
  C16      1.0000 0.19360  0.27136  0.48443  Biso   1.000  C 
  C17      1.0000 0.28375  0.33150  0.36956  Biso   1.000  C 
  C18      1.0000 0.22874  0.35235  0.35443  Biso   1.000  C 
  C19      1.0000 0.60764  0.88094  0.31579  Biso   1.000  C 
  C20      1.0000 0.36383  0.80153  0.02503  Biso   1.000  C 
  C21      1.0000 0.36382  0.19845  0.52500  Biso   1.000  C 
  C22      1.0000 0.21624  0.83150  0.13051  Biso   1.000  C 
  C23      1.0000 0.30637  0.22854  0.51556  Biso   1.000  C 
  C24      1.0000 0.59786  0.77672  0.63287  Biso   1.000  C 
  C25      1.0000 0.63618  0.80157  0.47516  Biso   1.000  C 
  C26      1.0000 0.69362  0.77146  0.48453  Biso   1.000  C 
  C27      1.0000 0.40214  0.22331  0.36732  Biso   1.000  C 
  C28      1.0000 0.39235  0.11907  0.68438  Biso   1.000  C 
  C29      1.0000 0.90215  0.27674  0.86706  Biso   1.000  C 
  C30      1.0000 0.59786  0.22331  0.13288  Biso   1.000  C 
  C31      1.0000 0.69362  0.22860  0.98448  Biso   1.000  C 
  C32      1.0000 0.63618  0.19848  0.97514  Biso   1.000  C 
  C33      1.0000 0.60764  0.11912  0.81576  Biso   1.000  C 
  C34      1.0000 0.22876  0.64756  0.85448  Biso   1.000  C 
  C35      1.0000 0.28377  0.66843  0.86958  Biso   1.000  C 
  C36      1.0000 0.19362  0.72854  0.98450  Biso   1.000  C 
  C37      1.0000 0.78375  0.16853  0.86938  Biso   1.000  C 
  C38      1.0000 0.80639  0.72859  0.51547  Biso   1.000  C 
  C39      1.0000 0.71625  0.66848  0.63049  Biso   1.000  C 
  C40      1.0000 0.77126  0.64760  0.64552  Biso   1.000  C 
  C41      1.0000 0.13618  0.69844  0.97506  Biso   1.000  C 
  C42      1.0000 0.09786  0.72328  0.13275  Biso   1.000  C 
  C43      1.0000 0.86384  0.69849  0.52487  Biso   1.000  C 
  C44      1.0000 0.72874  0.14765  0.85438  Biso   1.000  C 
  C45      1.0000 0.78376  0.83155  0.36950  Biso   1.000  C 
  C46      1.0000 0.89238  0.61917  0.68427  Biso   1.000  C 
  C47      1.0000 0.72875  0.85243  0.35447  Biso   1.000  C 
  C48      1.0000 0.90215  0.72331  0.36713  Biso   1.000  C 
  Fe1      1.0000 1.00000  0.53845  0.24992  Biso   1.000  Fe
  Fe2      1.0000 0.50000  0.03848  0.25010  Biso   1.000  Fe
  Fe3      1.0000 0.50000  0.96157  0.75010  Biso   1.000  Fe
  Fe4      1.0000 0.00000  0.46156  0.74992  Biso   1.000  Fe
  H1       1.0000 0.60236  0.27670  0.28778  Biso   1.000  H 
  H2       1.0000 0.89765  0.77667  0.21223  Biso   1.000  H 
  H3       1.0000 0.30957  0.60231  0.76751  Biso   1.000  H 
  H4       1.0000 0.80954  0.10242  0.76728  Biso   1.000  H 
  H5       1.0000 0.12115  0.57698  0.66361  Biso   1.000  H 
  H6       1.0000 0.12112  0.42292  0.16356  Biso   1.000  H 
  H7       1.0000 0.10232  0.22323  0.78756  Biso   1.000  H 
  H8       1.0000 0.21295  0.43557  0.24233  Biso   1.000  H 
  H9       1.0000 0.78705  0.56437  0.75758  Biso   1.000  H 
  H10      1.0000 0.69046  0.60236  0.73256  Biso   1.000  H 
  H11      1.0000 0.62113  0.92308  0.16378  Biso   1.000  H 
  H12      1.0000 0.60235  0.72331  0.78775  Biso   1.000  H 
  H13      1.0000 0.80955  0.89769  0.26743  Biso   1.000  H 
  H14      1.0000 0.30954  0.39763  0.26751  Biso   1.000  H 
  H15      1.0000 0.71296  0.93567  0.24242  Biso   1.000  H 
  H16      1.0000 0.37885  0.07693  0.83639  Biso   1.000  H 
  H17      1.0000 0.87889  0.57709  0.83632  Biso   1.000  H 
  H18      1.0000 0.69046  0.39767  0.23258  Biso   1.000  H 
  H19      1.0000 0.21298  0.56433  0.74239  Biso   1.000  H 
  H20      1.0000 0.39765  0.27672  0.21244  Biso   1.000  H 
  H21      1.0000 0.10234  0.77667  0.28764  Biso   1.000  H 
  H22      1.0000 0.19045  0.89763  0.23257  Biso   1.000  H 
  H23      1.0000 0.28703  0.93561  0.25769  Biso   1.000  H 
  H24      1.0000 0.71296  0.06441  0.74232  Biso   1.000  H 
  H25      1.0000 0.19043  0.10228  0.73250  Biso   1.000  H 
  H26      1.0000 0.87887  0.42302  0.33623  Biso   1.000  H 
  H27      1.0000 0.89766  0.22335  0.71218  Biso   1.000  H 
  H28      1.0000 0.62112  0.07701  0.66373  Biso   1.000  H 
  H29      1.0000 0.37886  0.92305  0.33640  Biso   1.000  H 
  H30      1.0000 0.39767  0.72325  0.71244  Biso   1.000  H 
  H31      1.0000 0.28702  0.06433  0.75766  Biso   1.000  H 
  H32      1.0000 0.78705  0.43567  0.25756  Biso   1.000  H 
  N1       1.0000 0.05691  0.40400  0.37668  Biso   1.000  N 
  N2       1.0000 0.05693  0.59593  0.87671  Biso   1.000  N 
  N3       1.0000 0.94308  0.40405  0.12311  Biso   1.000  N 
  N4       1.0000 0.55076  0.15995  0.07381  Biso   1.000  N 
  N5       1.0000 0.55076  0.84009  0.57379  Biso   1.000  N 
  N6       1.0000 0.55692  0.09597  0.87686  Biso   1.000  N 
  N7       1.0000 0.44924  0.15994  0.42642  Biso   1.000  N 
  N8       1.0000 0.05076  0.65990  0.07361  Biso   1.000  N 
  N9       1.0000 0.94309  0.59600  0.62317  Biso   1.000  N 
  N10      1.0000 0.05074  0.34003  0.57357  Biso   1.000  N 
  N11      1.0000 0.44308  0.90409  0.12334  Biso   1.000  N 
  N12      1.0000 0.44925  0.84008  0.92642  Biso   1.000  N 
  N13      1.0000 0.44307  0.09592  0.62334  Biso   1.000  N 
  N14      1.0000 0.94925  0.34009  0.92620  Biso   1.000  N 
  N15      1.0000 0.55692  0.90410  0.37685  Biso   1.000  N 
  N16      1.0000 0.94925  0.65994  0.42625  Biso   1.000  N 
