data_image0
_cell_length_a       19.8992
_cell_length_b       18.5151
_cell_length_c       6.44416
_cell_angle_alpha    89.9995
_cell_angle_beta     101.36
_cell_angle_gamma    90.0001

_symmetry_space_group_name_H-M    "P 1"
_symmetry_int_tables_number       1

loop_
  _symmetry_equiv_pos_as_xyz
  'x, y, z'

loop_
  _atom_site_label
  _atom_site_occupancy
  _atom_site_fract_x
  _atom_site_fract_y
  _atom_site_fract_z
  _atom_site_thermal_displace_type
  _atom_site_B_iso_or_equiv
  _atom_site_type_symbol
  C1       1.0000 0.12048  0.58956  0.85310  Biso   1.000  C 
  C2       1.0000 0.72989  0.79553  0.32797  Biso   1.000  C 
  C3       1.0000 0.39780  0.13394  0.34389  Biso   1.000  C 
  C4       1.0000 0.37953  0.08955  0.64689  Biso   1.000  C 
  C5       1.0000 0.89779  0.36605  0.84388  Biso   1.000  C 
  C6       1.0000 0.60220  0.13394  0.15612  Biso   1.000  C 
  C7       1.0000 0.69737  0.19745  0.00243  Biso   1.000  C 
  C8       1.0000 0.64357  0.14378  0.00430  Biso   1.000  C 
  C9       1.0000 0.62047  0.08955  0.85312  Biso   1.000  C 
  C10      1.0000 0.22987  0.70448  0.82797  Biso   1.000  C 
  C11      1.0000 0.28097  0.75552  0.82551  Biso   1.000  C 
  C12      1.0000 0.19738  0.69745  0.00244  Biso   1.000  C 
  C13      1.0000 0.87952  0.58955  0.64687  Biso   1.000  C 
  C14      1.0000 0.78097  0.25551  0.82550  Biso   1.000  C 
  C15      1.0000 0.89779  0.63394  0.34387  Biso   1.000  C 
  C16      1.0000 0.80262  0.69745  0.49755  Biso   1.000  C 
  C17      1.0000 0.71903  0.75551  0.67450  Biso   1.000  C 
  C18      1.0000 0.77012  0.70448  0.67202  Biso   1.000  C 
  C19      1.0000 0.14357  0.64378  0.00429  Biso   1.000  C 
  C20      1.0000 0.10220  0.63394  0.15611  Biso   1.000  C 
  C21      1.0000 0.85642  0.64378  0.49569  Biso   1.000  C 
  C22      1.0000 0.72987  0.20448  0.82797  Biso   1.000  C 
  C23      1.0000 0.78098  0.74449  0.32548  Biso   1.000  C 
  C24      1.0000 0.69739  0.80256  0.50243  Biso   1.000  C 
  C25      1.0000 0.64359  0.85623  0.50431  Biso   1.000  C 
  C26      1.0000 0.60222  0.86606  0.65613  Biso   1.000  C 
  C27      1.0000 0.35643  0.14378  0.49571  Biso   1.000  C 
  C28      1.0000 0.30263  0.19745  0.49758  Biso   1.000  C 
  C29      1.0000 0.21903  0.25551  0.67450  Biso   1.000  C 
  C30      1.0000 0.27013  0.20448  0.67204  Biso   1.000  C 
  C31      1.0000 0.87952  0.41044  0.14687  Biso   1.000  C 
  C32      1.0000 0.85642  0.35621  0.99569  Biso   1.000  C 
  C33      1.0000 0.80261  0.30255  0.99755  Biso   1.000  C 
  C34      1.0000 0.71901  0.24449  0.17450  Biso   1.000  C 
  C35      1.0000 0.77011  0.29553  0.17202  Biso   1.000  C 
  C36      1.0000 0.37952  0.91045  0.14691  Biso   1.000  C 
  C37      1.0000 0.39778  0.86606  0.84389  Biso   1.000  C 
  C38      1.0000 0.30261  0.80256  0.99758  Biso   1.000  C 
  C39      1.0000 0.21902  0.74449  0.17451  Biso   1.000  C 
  C40      1.0000 0.27011  0.79552  0.17205  Biso   1.000  C 
  C41      1.0000 0.12048  0.41044  0.35309  Biso   1.000  C 
  C42      1.0000 0.10222  0.36605  0.65611  Biso   1.000  C 
  C43      1.0000 0.14358  0.35622  0.50429  Biso   1.000  C 
  C44      1.0000 0.19739  0.30255  0.50243  Biso   1.000  C 
  C45      1.0000 0.28099  0.24449  0.32550  Biso   1.000  C 
  C46      1.0000 0.22989  0.29553  0.32797  Biso   1.000  C 
  C47      1.0000 0.62049  0.91045  0.35313  Biso   1.000  C 
  C48      1.0000 0.35641  0.85623  0.99572  Biso   1.000  C 
  Fe1      1.0000 1.00000  0.48227  0.74998  Biso   1.000  Fe
  Fe2      1.0000 0.50000  0.98228  0.75002  Biso   1.000  Fe
  Fe3      1.0000 0.50000  0.01771  0.25002  Biso   1.000  Fe
  Fe4      1.0000 1.00000  0.51772  0.24998  Biso   1.000  Fe
  H1       1.0000 0.78513  0.33071  0.30918  Biso   1.000  H 
  H2       1.0000 0.39868  0.83640  0.69902  Biso   1.000  H 
  H3       1.0000 0.36244  0.92400  0.29219  Biso   1.000  H 
  H4       1.0000 0.63756  0.07600  0.70785  Biso   1.000  H 
  H5       1.0000 0.89869  0.33638  0.69901  Biso   1.000  H 
  H6       1.0000 0.86244  0.42400  0.29214  Biso   1.000  H 
  H7       1.0000 0.69559  0.24112  0.31368  Biso   1.000  H 
  H8       1.0000 0.19561  0.25889  0.81369  Biso   1.000  H 
  H9       1.0000 0.71485  0.16929  0.69081  Biso   1.000  H 
  H10      1.0000 0.28513  0.83071  0.30920  Biso   1.000  H 
  H11      1.0000 0.19560  0.74111  0.31370  Biso   1.000  H 
  H12      1.0000 0.10131  0.66360  0.30099  Biso   1.000  H 
  H13      1.0000 0.39870  0.16360  0.19902  Biso   1.000  H 
  H14      1.0000 0.21486  0.66929  0.69081  Biso   1.000  H 
  H15      1.0000 0.86244  0.57600  0.79214  Biso   1.000  H 
  H16      1.0000 0.28514  0.16929  0.80919  Biso   1.000  H 
  H17      1.0000 0.71487  0.83072  0.19082  Biso   1.000  H 
  H18      1.0000 0.89869  0.66360  0.19899  Biso   1.000  H 
  H19      1.0000 0.30439  0.75890  0.68631  Biso   1.000  H 
  H20      1.0000 0.80439  0.25888  0.68631  Biso   1.000  H 
  H21      1.0000 0.13756  0.57600  0.70783  Biso   1.000  H 
  H22      1.0000 0.13756  0.42399  0.20782  Biso   1.000  H 
  H23      1.0000 0.10132  0.33639  0.80099  Biso   1.000  H 
  H24      1.0000 0.30441  0.24111  0.18632  Biso   1.000  H 
  H25      1.0000 0.60130  0.16361  0.30099  Biso   1.000  H 
  H26      1.0000 0.36244  0.07600  0.79216  Biso   1.000  H 
  H27      1.0000 0.78514  0.66929  0.80917  Biso   1.000  H 
  H28      1.0000 0.69561  0.75889  0.81369  Biso   1.000  H 
  H29      1.0000 0.63757  0.92400  0.20786  Biso   1.000  H 
  H30      1.0000 0.60132  0.83639  0.80100  Biso   1.000  H 
  H31      1.0000 0.80440  0.74112  0.18630  Biso   1.000  H 
  H32      1.0000 0.21488  0.33072  0.19081  Biso   1.000  H 
  N1       1.0000 0.43032  0.05117  0.58872  Biso   1.000  N 
  N2       1.0000 0.44173  0.92143  0.90112  Biso   1.000  N 
  N3       1.0000 0.43032  0.94883  0.08872  Biso   1.000  N 
  N4       1.0000 0.05826  0.57857  0.09887  Biso   1.000  N 
  N5       1.0000 0.06968  0.44882  0.41127  Biso   1.000  N 
  N6       1.0000 0.05827  0.42142  0.59888  Biso   1.000  N 
  N7       1.0000 0.93032  0.55117  0.58870  Biso   1.000  N 
  N8       1.0000 0.94174  0.42142  0.90110  Biso   1.000  N 
  N9       1.0000 0.44174  0.07857  0.40112  Biso   1.000  N 
  N10      1.0000 0.56968  0.05117  0.91130  Biso   1.000  N 
  N11      1.0000 0.56969  0.94883  0.41131  Biso   1.000  N 
  N12      1.0000 0.55827  0.92143  0.59891  Biso   1.000  N 
  N13      1.0000 0.55826  0.07857  0.09890  Biso   1.000  N 
  N14      1.0000 0.93032  0.44882  0.08870  Biso   1.000  N 
  N15      1.0000 0.06967  0.55117  0.91127  Biso   1.000  N 
  N16      1.0000 0.94174  0.57857  0.40109  Biso   1.000  N 
