data_image0
_cell_length_a       25.2153
_cell_length_b       7.09393
_cell_length_c       5.92276
_cell_angle_alpha    89.9992
_cell_angle_beta     88.3729
_cell_angle_gamma    90.0031

_symmetry_space_group_name_H-M    "P 1"
_symmetry_int_tables_number       1

loop_
  _symmetry_equiv_pos_as_xyz
  'x, y, z'

loop_
  _atom_site_label
  _atom_site_occupancy
  _atom_site_fract_x
  _atom_site_fract_y
  _atom_site_fract_z
  _atom_site_thermal_displace_type
  _atom_site_B_iso_or_equiv
  _atom_site_type_symbol
  C1       1.0000 0.10843  0.64673  0.78907  Biso   1.000  C 
  C2       1.0000 0.39156  0.14670  0.71093  Biso   1.000  C 
  C3       1.0000 0.90332  0.21516  0.87728  Biso   1.000  C 
  C4       1.0000 0.59670  0.28480  0.12270  Biso   1.000  C 
  C5       1.0000 0.69396  0.25435  0.97474  Biso   1.000  C 
  C6       1.0000 0.63634  0.24193  0.95756  Biso   1.000  C 
  C7       1.0000 0.60845  0.14667  0.78906  Biso   1.000  C 
  C8       1.0000 0.22812  0.68405  0.80230  Biso   1.000  C 
  C9       1.0000 0.28271  0.67966  0.82717  Biso   1.000  C 
  C10      1.0000 0.19395  0.75440  0.97476  Biso   1.000  C 
  C11      1.0000 0.78272  0.17961  0.82718  Biso   1.000  C 
  C12      1.0000 0.80604  0.75434  0.52524  Biso   1.000  C 
  C13      1.0000 0.71727  0.67961  0.67281  Biso   1.000  C 
  C14      1.0000 0.77186  0.68398  0.69770  Biso   1.000  C 
  C15      1.0000 0.13633  0.74197  0.95758  Biso   1.000  C 
  C16      1.0000 0.09668  0.78484  0.12274  Biso   1.000  C 
  C17      1.0000 0.86366  0.74190  0.54242  Biso   1.000  C 
  C18      1.0000 0.72814  0.18400  0.80230  Biso   1.000  C 
  C19      1.0000 0.78271  0.82033  0.32717  Biso   1.000  C 
  C20      1.0000 0.89155  0.64664  0.71093  Biso   1.000  C 
  C21      1.0000 0.72812  0.81595  0.30229  Biso   1.000  C 
  C22      1.0000 0.90330  0.78478  0.37728  Biso   1.000  C 
  C23      1.0000 0.40332  0.28482  0.37727  Biso   1.000  C 
  C24      1.0000 0.69394  0.74561  0.47476  Biso   1.000  C 
  C25      1.0000 0.63632  0.75805  0.45756  Biso   1.000  C 
  C26      1.0000 0.59668  0.71518  0.62272  Biso   1.000  C 
  C27      1.0000 0.21729  0.17967  0.67283  Biso   1.000  C 
  C28      1.0000 0.27188  0.18404  0.69769  Biso   1.000  C 
  C29      1.0000 0.89156  0.35327  0.21094  Biso   1.000  C 
  C30      1.0000 0.86367  0.25803  0.04243  Biso   1.000  C 
  C31      1.0000 0.80606  0.24560  0.02524  Biso   1.000  C 
  C32      1.0000 0.71729  0.32033  0.17281  Biso   1.000  C 
  C33      1.0000 0.77188  0.31595  0.19770  Biso   1.000  C 
  C34      1.0000 0.39155  0.85333  0.21093  Biso   1.000  C 
  C35      1.0000 0.40331  0.71520  0.87728  Biso   1.000  C 
  C36      1.0000 0.30604  0.74564  0.02524  Biso   1.000  C 
  C37      1.0000 0.27186  0.81600  0.19769  Biso   1.000  C 
  C38      1.0000 0.09670  0.21523  0.62275  Biso   1.000  C 
  C39      1.0000 0.13634  0.25811  0.45760  Biso   1.000  C 
  C40      1.0000 0.19396  0.24567  0.47477  Biso   1.000  C 
  C41      1.0000 0.28273  0.32038  0.32717  Biso   1.000  C 
  C42      1.0000 0.22814  0.31601  0.30231  Biso   1.000  C 
  C43      1.0000 0.60844  0.85330  0.28906  Biso   1.000  C 
  C44      1.0000 0.36366  0.75808  0.04243  Biso   1.000  C 
  C45      1.0000 0.36368  0.24196  0.54241  Biso   1.000  C 
  C46      1.0000 0.21728  0.82039  0.17282  Biso   1.000  C 
  C47      1.0000 0.30606  0.25439  0.52523  Biso   1.000  C 
  C48      1.0000 0.10845  0.35337  0.28910  Biso   1.000  C 
  Fe1      1.0000 1.00000  0.44994  0.75000  Biso   1.000  Fe
  Fe2      1.0000 0.50000  0.94992  0.75000  Biso   1.000  Fe
  Fe3      1.0000 0.50000  0.05007  0.24999  Biso   1.000  Fe
  Fe4      1.0000 0.00000  0.55007  0.25001  Biso   1.000  Fe
  H1       1.0000 0.78794  0.36975  0.35394  Biso   1.000  H 
  H2       1.0000 0.28794  0.13023  0.85394  Biso   1.000  H 
  H3       1.0000 0.40024  0.64378  0.71585  Biso   1.000  H 
  H4       1.0000 0.37695  0.91394  0.36893  Biso   1.000  H 
  H5       1.0000 0.62305  0.08605  0.63106  Biso   1.000  H 
  H6       1.0000 0.90025  0.14374  0.71585  Biso   1.000  H 
  H7       1.0000 0.87696  0.41388  0.36894  Biso   1.000  H 
  H8       1.0000 0.19242  0.12462  0.81111  Biso   1.000  H 
  H9       1.0000 0.28793  0.86980  0.35394  Biso   1.000  H 
  H10      1.0000 0.19241  0.87544  0.31109  Biso   1.000  H 
  H11      1.0000 0.09975  0.85625  0.28418  Biso   1.000  H 
  H12      1.0000 0.40026  0.35625  0.21584  Biso   1.000  H 
  H13      1.0000 0.21206  0.63024  0.64606  Biso   1.000  H 
  H14      1.0000 0.69242  0.37540  0.31109  Biso   1.000  H 
  H15      1.0000 0.87694  0.58603  0.86893  Biso   1.000  H 
  H16      1.0000 0.71208  0.13019  0.64604  Biso   1.000  H 
  H17      1.0000 0.71206  0.86977  0.14605  Biso   1.000  H 
  H18      1.0000 0.37696  0.08609  0.86893  Biso   1.000  H 
  H19      1.0000 0.90024  0.85621  0.21585  Biso   1.000  H 
  H20      1.0000 0.30758  0.62460  0.68890  Biso   1.000  H 
  H21      1.0000 0.80760  0.12455  0.68891  Biso   1.000  H 
  H22      1.0000 0.12304  0.58613  0.63107  Biso   1.000  H 
  H23      1.0000 0.12306  0.41399  0.13109  Biso   1.000  H 
  H24      1.0000 0.09976  0.14380  0.78417  Biso   1.000  H 
  H25      1.0000 0.59976  0.35623  0.28413  Biso   1.000  H 
  H26      1.0000 0.78792  0.63018  0.85394  Biso   1.000  H 
  H27      1.0000 0.69240  0.62456  0.81110  Biso   1.000  H 
  H28      1.0000 0.62304  0.91391  0.13105  Biso   1.000  H 
  H29      1.0000 0.59974  0.64375  0.78415  Biso   1.000  H 
  H30      1.0000 0.80758  0.87538  0.18890  Biso   1.000  H 
  H31      1.0000 0.30760  0.37543  0.18889  Biso   1.000  H 
  H32      1.0000 0.21208  0.36982  0.14606  Biso   1.000  H 
  N1       1.0000 0.55703  0.87208  0.35377  Biso   1.000  N 
  N2       1.0000 0.95043  0.28668  0.93954  Biso   1.000  N 
  N3       1.0000 0.44297  0.12792  0.64621  Biso   1.000  N 
  N4       1.0000 0.45042  0.78671  0.93954  Biso   1.000  N 
  N5       1.0000 0.44296  0.87210  0.14622  Biso   1.000  N 
  N6       1.0000 0.04958  0.28674  0.56049  Biso   1.000  N 
  N7       1.0000 0.94295  0.62788  0.64623  Biso   1.000  N 
  N8       1.0000 0.54957  0.78669  0.56046  Biso   1.000  N 
  N9       1.0000 0.45044  0.21331  0.43952  Biso   1.000  N 
  N10      1.0000 0.55704  0.12790  0.85377  Biso   1.000  N 
  N11      1.0000 0.54958  0.21329  0.06045  Biso   1.000  N 
  N12      1.0000 0.94297  0.37206  0.14623  Biso   1.000  N 
  N13      1.0000 0.05703  0.62795  0.85378  Biso   1.000  N 
  N14      1.0000 0.05705  0.37213  0.35380  Biso   1.000  N 
  N15      1.0000 0.04957  0.71333  0.06048  Biso   1.000  N 
  N16      1.0000 0.95042  0.71327  0.43954  Biso   1.000  N 
