data_image0
_cell_length_a       24.4857
_cell_length_b       11.3563
_cell_length_c       5.8269
_cell_angle_alpha    89.9999
_cell_angle_beta     95.122
_cell_angle_gamma    90

_symmetry_space_group_name_H-M    "P 1"
_symmetry_int_tables_number       1

loop_
  _symmetry_equiv_pos_as_xyz
  'x, y, z'

loop_
  _atom_site_label
  _atom_site_occupancy
  _atom_site_fract_x
  _atom_site_fract_y
  _atom_site_fract_z
  _atom_site_thermal_displace_type
  _atom_site_B_iso_or_equiv
  _atom_site_type_symbol
  C1       1.0000 0.11009  0.59771  0.81642  Biso   1.000  C 
  C2       1.0000 0.40179  0.19272  0.35925  Biso   1.000  C 
  C3       1.0000 0.38990  0.09767  0.68356  Biso   1.000  C 
  C4       1.0000 0.90181  0.30724  0.85926  Biso   1.000  C 
  C5       1.0000 0.59820  0.19272  0.14075  Biso   1.000  C 
  C6       1.0000 0.69411  0.21338  0.98990  Biso   1.000  C 
  C7       1.0000 0.63740  0.17270  0.98174  Biso   1.000  C 
  C8       1.0000 0.61010  0.09767  0.81643  Biso   1.000  C 
  C9       1.0000 0.22759  0.68429  0.81375  Biso   1.000  C 
  C10      1.0000 0.28204  0.71988  0.82364  Biso   1.000  C 
  C11      1.0000 0.19409  0.71351  0.98978  Biso   1.000  C 
  C12      1.0000 0.78207  0.21975  0.82374  Biso   1.000  C 
  C13      1.0000 0.90181  0.69276  0.35925  Biso   1.000  C 
  C14      1.0000 0.80592  0.71352  0.51023  Biso   1.000  C 
  C15      1.0000 0.71796  0.71989  0.67637  Biso   1.000  C 
  C16      1.0000 0.77241  0.68431  0.68625  Biso   1.000  C 
  C17      1.0000 0.13739  0.67277  0.98170  Biso   1.000  C 
  C18      1.0000 0.09819  0.69276  0.14074  Biso   1.000  C 
  C19      1.0000 0.86262  0.67278  0.51831  Biso   1.000  C 
  C20      1.0000 0.72762  0.18416  0.81387  Biso   1.000  C 
  C21      1.0000 0.78206  0.78024  0.32374  Biso   1.000  C 
  C22      1.0000 0.88991  0.59772  0.68358  Biso   1.000  C 
  C23      1.0000 0.72762  0.81584  0.31386  Biso   1.000  C 
  C24      1.0000 0.69411  0.78661  0.48989  Biso   1.000  C 
  C25      1.0000 0.63740  0.82730  0.48174  Biso   1.000  C 
  C26      1.0000 0.59820  0.80728  0.64074  Biso   1.000  C 
  C27      1.0000 0.30589  0.21340  0.51011  Biso   1.000  C 
  C28      1.0000 0.21794  0.21976  0.67627  Biso   1.000  C 
  C29      1.0000 0.27238  0.18417  0.68614  Biso   1.000  C 
  C30      1.0000 0.88991  0.40229  0.18358  Biso   1.000  C 
  C31      1.0000 0.86262  0.32722  0.01832  Biso   1.000  C 
  C32      1.0000 0.80592  0.28647  0.01024  Biso   1.000  C 
  C33      1.0000 0.71797  0.28010  0.17638  Biso   1.000  C 
  C34      1.0000 0.77241  0.31568  0.18626  Biso   1.000  C 
  C35      1.0000 0.38990  0.90233  0.18355  Biso   1.000  C 
  C36      1.0000 0.40180  0.80727  0.85925  Biso   1.000  C 
  C37      1.0000 0.30589  0.78660  0.01012  Biso   1.000  C 
  C38      1.0000 0.27238  0.81583  0.18614  Biso   1.000  C 
  C39      1.0000 0.11010  0.40230  0.31642  Biso   1.000  C 
  C40      1.0000 0.09819  0.30725  0.64074  Biso   1.000  C 
  C41      1.0000 0.13738  0.32724  0.48168  Biso   1.000  C 
  C42      1.0000 0.19408  0.28649  0.48978  Biso   1.000  C 
  C43      1.0000 0.28203  0.28012  0.32364  Biso   1.000  C 
  C44      1.0000 0.22759  0.31570  0.31376  Biso   1.000  C 
  C45      1.0000 0.61010  0.90234  0.31644  Biso   1.000  C 
  C46      1.0000 0.36260  0.82729  0.01825  Biso   1.000  C 
  C47      1.0000 0.36259  0.17270  0.51826  Biso   1.000  C 
  C48      1.0000 0.21794  0.78023  0.17626  Biso   1.000  C 
  Fe1      1.0000 0.00000  0.46261  0.75000  Biso   1.000  Fe
  Fe2      1.0000 0.50000  0.96259  0.75000  Biso   1.000  Fe
  Fe3      1.0000 0.50000  0.03741  0.25000  Biso   1.000  Fe
  Fe4      1.0000 1.00000  0.53741  0.25000  Biso   1.000  Fe
  H1       1.0000 0.19367  0.19570  0.81726  Biso   1.000  H 
  H2       1.0000 0.21089  0.63257  0.66604  Biso   1.000  H 
  H3       1.0000 0.39880  0.24440  0.20177  Biso   1.000  H 
  H4       1.0000 0.10119  0.74441  0.29823  Biso   1.000  H 
  H5       1.0000 0.19367  0.80430  0.31725  Biso   1.000  H 
  H6       1.0000 0.28909  0.86752  0.33389  Biso   1.000  H 
  H7       1.0000 0.71092  0.13247  0.66610  Biso   1.000  H 
  H8       1.0000 0.78911  0.36740  0.33397  Biso   1.000  H 
  H9       1.0000 0.87551  0.44157  0.33701  Biso   1.000  H 
  H10      1.0000 0.89882  0.25558  0.70176  Biso   1.000  H 
  H11      1.0000 0.62450  0.05839  0.66300  Biso   1.000  H 
  H12      1.0000 0.37550  0.94162  0.33700  Biso   1.000  H 
  H13      1.0000 0.39881  0.75560  0.70179  Biso   1.000  H 
  H14      1.0000 0.28909  0.13248  0.83390  Biso   1.000  H 
  H15      1.0000 0.87551  0.55843  0.83703  Biso   1.000  H 
  H16      1.0000 0.69370  0.30420  0.31731  Biso   1.000  H 
  H17      1.0000 0.71091  0.86752  0.16610  Biso   1.000  H 
  H18      1.0000 0.30631  0.30421  0.18270  Biso   1.000  H 
  H19      1.0000 0.80633  0.80431  0.18275  Biso   1.000  H 
  H20      1.0000 0.60119  0.75560  0.79821  Biso   1.000  H 
  H21      1.0000 0.62450  0.94162  0.16299  Biso   1.000  H 
  H22      1.0000 0.69369  0.69579  0.81730  Biso   1.000  H 
  H23      1.0000 0.78911  0.63258  0.83396  Biso   1.000  H 
  H24      1.0000 0.37550  0.05839  0.83700  Biso   1.000  H 
  H25      1.0000 0.21089  0.36742  0.16605  Biso   1.000  H 
  H26      1.0000 0.10118  0.25558  0.79823  Biso   1.000  H 
  H27      1.0000 0.12449  0.44159  0.16299  Biso   1.000  H 
  H28      1.0000 0.12449  0.55843  0.66297  Biso   1.000  H 
  H29      1.0000 0.80633  0.19568  0.68275  Biso   1.000  H 
  H30      1.0000 0.30631  0.69579  0.68270  Biso   1.000  H 
  H31      1.0000 0.89882  0.74442  0.20177  Biso   1.000  H 
  H32      1.0000 0.60119  0.24440  0.29823  Biso   1.000  H 
  N1       1.0000 0.94843  0.36647  0.92512  Biso   1.000  N 
  N2       1.0000 0.44089  0.07485  0.62536  Biso   1.000  N 
  N3       1.0000 0.44842  0.86647  0.92516  Biso   1.000  N 
  N4       1.0000 0.44089  0.92515  0.12536  Biso   1.000  N 
  N5       1.0000 0.05158  0.63354  0.07486  Biso   1.000  N 
  N6       1.0000 0.05157  0.36647  0.57487  Biso   1.000  N 
  N7       1.0000 0.94089  0.57486  0.62534  Biso   1.000  N 
  N8       1.0000 0.55911  0.92515  0.37463  Biso   1.000  N 
  N9       1.0000 0.44842  0.13353  0.42516  Biso   1.000  N 
  N10      1.0000 0.55911  0.07486  0.87464  Biso   1.000  N 
  N11      1.0000 0.55158  0.86647  0.57483  Biso   1.000  N 
  N12      1.0000 0.55158  0.13354  0.07484  Biso   1.000  N 
  N13      1.0000 0.94089  0.42515  0.12533  Biso   1.000  N 
  N14      1.0000 0.05911  0.57486  0.87465  Biso   1.000  N 
  N15      1.0000 0.05911  0.42515  0.37467  Biso   1.000  N 
  N16      1.0000 0.94842  0.63354  0.42513  Biso   1.000  N 
