data_image0
_cell_length_a       25.2179
_cell_length_b       7.47226
_cell_length_c       6.12916
_cell_angle_alpha    90.0005
_cell_angle_beta     89.1508
_cell_angle_gamma    90.002

_symmetry_space_group_name_H-M    "P 1"
_symmetry_int_tables_number       1

loop_
  _symmetry_equiv_pos_as_xyz
  'x, y, z'

loop_
  _atom_site_label
  _atom_site_occupancy
  _atom_site_fract_x
  _atom_site_fract_y
  _atom_site_fract_z
  _atom_site_thermal_displace_type
  _atom_site_B_iso_or_equiv
  _atom_site_type_symbol
  C1       1.0000 0.10770  0.64050  0.80063  Biso   1.000  C 
  C2       1.0000 0.39229  0.14047  0.69935  Biso   1.000  C 
  C3       1.0000 0.90276  0.23439  0.87369  Biso   1.000  C 
  C4       1.0000 0.59726  0.26545  0.12627  Biso   1.000  C 
  C5       1.0000 0.69376  0.24769  0.97773  Biso   1.000  C 
  C6       1.0000 0.63615  0.22990  0.96404  Biso   1.000  C 
  C7       1.0000 0.60771  0.14033  0.80061  Biso   1.000  C 
  C8       1.0000 0.22750  0.66797  0.82034  Biso   1.000  C 
  C9       1.0000 0.28227  0.66979  0.84224  Biso   1.000  C 
  C10      1.0000 0.19375  0.74794  0.97777  Biso   1.000  C 
  C11      1.0000 0.78229  0.16957  0.84218  Biso   1.000  C 
  C12      1.0000 0.80623  0.74771  0.52228  Biso   1.000  C 
  C13      1.0000 0.71771  0.66955  0.65782  Biso   1.000  C 
  C14      1.0000 0.77248  0.66774  0.67971  Biso   1.000  C 
  C15      1.0000 0.13612  0.73008  0.96410  Biso   1.000  C 
  C16      1.0000 0.09724  0.76562  0.12628  Biso   1.000  C 
  C17      1.0000 0.86385  0.72989  0.53596  Biso   1.000  C 
  C18      1.0000 0.72752  0.16775  0.82029  Biso   1.000  C 
  C19      1.0000 0.78227  0.83026  0.34229  Biso   1.000  C 
  C20      1.0000 0.89229  0.64033  0.69940  Biso   1.000  C 
  C21      1.0000 0.72751  0.83208  0.32039  Biso   1.000  C 
  C22      1.0000 0.90273  0.76547  0.37375  Biso   1.000  C 
  C23      1.0000 0.40277  0.26558  0.37370  Biso   1.000  C 
  C24      1.0000 0.69375  0.75211  0.47781  Biso   1.000  C 
  C25      1.0000 0.63613  0.76992  0.46413  Biso   1.000  C 
  C26      1.0000 0.59724  0.73439  0.62633  Biso   1.000  C 
  C27      1.0000 0.21773  0.16978  0.65774  Biso   1.000  C 
  C28      1.0000 0.27250  0.16795  0.67964  Biso   1.000  C 
  C29      1.0000 0.89229  0.35950  0.19935  Biso   1.000  C 
  C30      1.0000 0.86387  0.26994  0.03589  Biso   1.000  C 
  C31      1.0000 0.80625  0.25209  0.02220  Biso   1.000  C 
  C32      1.0000 0.71773  0.33024  0.15774  Biso   1.000  C 
  C33      1.0000 0.77249  0.33206  0.17962  Biso   1.000  C 
  C34      1.0000 0.39228  0.85964  0.19939  Biso   1.000  C 
  C35      1.0000 0.40273  0.73453  0.87371  Biso   1.000  C 
  C36      1.0000 0.30623  0.75233  0.02226  Biso   1.000  C 
  C37      1.0000 0.27247  0.83227  0.17969  Biso   1.000  C 
  C38      1.0000 0.09727  0.23455  0.62625  Biso   1.000  C 
  C39      1.0000 0.13616  0.27013  0.46403  Biso   1.000  C 
  C40      1.0000 0.19378  0.25233  0.47774  Biso   1.000  C 
  C41      1.0000 0.28230  0.33046  0.34221  Biso   1.000  C 
  C42      1.0000 0.22753  0.33229  0.32030  Biso   1.000  C 
  C43      1.0000 0.60771  0.85949  0.30067  Biso   1.000  C 
  C44      1.0000 0.36385  0.77010  0.03594  Biso   1.000  C 
  C45      1.0000 0.36387  0.23008  0.53591  Biso   1.000  C 
  C46      1.0000 0.21770  0.83045  0.15779  Biso   1.000  C 
  C47      1.0000 0.30626  0.24790  0.52223  Biso   1.000  C 
  C48      1.0000 0.10772  0.35968  0.30059  Biso   1.000  C 
  Fe1      1.0000 0.00000  0.45461  0.75000  Biso   1.000  Fe
  Fe2      1.0000 0.49999  0.95460  0.74998  Biso   1.000  Fe
  Fe3      1.0000 0.50001  0.04533  0.25003  Biso   1.000  Fe
  Fe4      1.0000 0.99999  0.54536  0.24999  Biso   1.000  Fe
  H1       1.0000 0.78908  0.39974  0.32063  Biso   1.000  H 
  H2       1.0000 0.28908  0.10027  0.82060  Biso   1.000  H 
  H3       1.0000 0.39888  0.67016  0.71576  Biso   1.000  H 
  H4       1.0000 0.37843  0.91281  0.35481  Biso   1.000  H 
  H5       1.0000 0.62157  0.08717  0.64520  Biso   1.000  H 
  H6       1.0000 0.89893  0.17001  0.71574  Biso   1.000  H 
  H7       1.0000 0.87842  0.41266  0.35474  Biso   1.000  H 
  H8       1.0000 0.19334  0.10554  0.78347  Biso   1.000  H 
  H9       1.0000 0.28906  0.89990  0.32070  Biso   1.000  H 
  H10      1.0000 0.19331  0.89468  0.28354  Biso   1.000  H 
  H11      1.0000 0.10106  0.83001  0.28422  Biso   1.000  H 
  H12      1.0000 0.39894  0.32997  0.21575  Biso   1.000  H 
  H13      1.0000 0.21091  0.60029  0.67935  Biso   1.000  H 
  H14      1.0000 0.69333  0.39449  0.28352  Biso   1.000  H 
  H15      1.0000 0.87843  0.58715  0.85480  Biso   1.000  H 
  H16      1.0000 0.71093  0.10012  0.67929  Biso   1.000  H 
  H17      1.0000 0.71093  0.89975  0.17943  Biso   1.000  H 
  H18      1.0000 0.37842  0.08733  0.85476  Biso   1.000  H 
  H19      1.0000 0.89889  0.82985  0.21579  Biso   1.000  H 
  H20      1.0000 0.30666  0.60553  0.71647  Biso   1.000  H 
  H21      1.0000 0.80668  0.10533  0.71644  Biso   1.000  H 
  H22      1.0000 0.12157  0.58735  0.64522  Biso   1.000  H 
  H23      1.0000 0.12158  0.41285  0.14519  Biso   1.000  H 
  H24      1.0000 0.10111  0.17016  0.78420  Biso   1.000  H 
  H25      1.0000 0.60110  0.32984  0.28423  Biso   1.000  H 
  H26      1.0000 0.78906  0.60007  0.82072  Biso   1.000  H 
  H27      1.0000 0.69331  0.60529  0.78357  Biso   1.000  H 
  H28      1.0000 0.62158  0.91264  0.14525  Biso   1.000  H 
  H29      1.0000 0.60107  0.67001  0.78428  Biso   1.000  H 
  H30      1.0000 0.80667  0.89450  0.21655  Biso   1.000  H 
  H31      1.0000 0.30670  0.39472  0.21644  Biso   1.000  H 
  H32      1.0000 0.21095  0.39995  0.17928  Biso   1.000  H 
  N1       1.0000 0.55673  0.88095  0.36474  Biso   1.000  N 
  N2       1.0000 0.94991  0.30388  0.93319  Biso   1.000  N 
  N3       1.0000 0.44327  0.11899  0.63527  Biso   1.000  N 
  N4       1.0000 0.44989  0.80393  0.93319  Biso   1.000  N 
  N5       1.0000 0.44327  0.88103  0.13528  Biso   1.000  N 
  N6       1.0000 0.05011  0.30397  0.56678  Biso   1.000  N 
  N7       1.0000 0.94327  0.61891  0.63528  Biso   1.000  N 
  N8       1.0000 0.55009  0.80387  0.56683  Biso   1.000  N 
  N9       1.0000 0.44991  0.19608  0.43319  Biso   1.000  N 
  N10      1.0000 0.55673  0.11892  0.86472  Biso   1.000  N 
  N11      1.0000 0.55010  0.19601  0.06681  Biso   1.000  N 
  N12      1.0000 0.94327  0.38097  0.13526  Biso   1.000  N 
  N13      1.0000 0.05672  0.61901  0.86472  Biso   1.000  N 
  N14      1.0000 0.05674  0.38108  0.36470  Biso   1.000  N 
  N15      1.0000 0.05009  0.69610  0.06680  Biso   1.000  N 
  N16      1.0000 0.94989  0.69602  0.43321  Biso   1.000  N 
