data_image0
_cell_length_a       23.6544
_cell_length_b       13.3233
_cell_length_c       5.86222
_cell_angle_alpha    90.0008
_cell_angle_beta     97.8228
_cell_angle_gamma    90.0001

_symmetry_space_group_name_H-M    "P 1"
_symmetry_int_tables_number       1

loop_
  _symmetry_equiv_pos_as_xyz
  'x, y, z'

loop_
  _atom_site_label
  _atom_site_occupancy
  _atom_site_fract_x
  _atom_site_fract_y
  _atom_site_fract_z
  _atom_site_thermal_displace_type
  _atom_site_B_iso_or_equiv
  _atom_site_type_symbol
  C1       1.0000 0.11245  0.58965  0.82843  Biso   1.000  C 
  C2       1.0000 0.30515  0.20596  0.50568  Biso   1.000  C 
  C3       1.0000 0.21784  0.23138  0.67697  Biso   1.000  C 
  C4       1.0000 0.27158  0.18858  0.68265  Biso   1.000  C 
  C5       1.0000 0.88756  0.41035  0.17158  Biso   1.000  C 
  C6       1.0000 0.86132  0.34024  0.01081  Biso   1.000  C 
  C7       1.0000 0.80522  0.29394  0.00593  Biso   1.000  C 
  C8       1.0000 0.71792  0.26849  0.17729  Biso   1.000  C 
  C9       1.0000 0.77166  0.31128  0.18298  Biso   1.000  C 
  C10      1.0000 0.38753  0.91036  0.17149  Biso   1.000  C 
  C11      1.0000 0.40133  0.82769  0.85524  Biso   1.000  C 
  C12      1.0000 0.30516  0.79404  0.00569  Biso   1.000  C 
  C13      1.0000 0.21785  0.76863  0.17697  Biso   1.000  C 
  C14      1.0000 0.27158  0.81142  0.18266  Biso   1.000  C 
  C15      1.0000 0.11245  0.41036  0.32843  Biso   1.000  C 
  C16      1.0000 0.09862  0.32761  0.64453  Biso   1.000  C 
  C17      1.0000 0.13868  0.34024  0.48919  Biso   1.000  C 
  C18      1.0000 0.19478  0.29394  0.49407  Biso   1.000  C 
  C19      1.0000 0.28208  0.26849  0.32271  Biso   1.000  C 
  C20      1.0000 0.22834  0.31127  0.31702  Biso   1.000  C 
  C21      1.0000 0.61247  0.91036  0.32851  Biso   1.000  C 
  C22      1.0000 0.36128  0.84030  0.01063  Biso   1.000  C 
  C23      1.0000 0.36127  0.15970  0.51063  Biso   1.000  C 
  C24      1.0000 0.59867  0.82770  0.64474  Biso   1.000  C 
  C25      1.0000 0.63873  0.84031  0.48937  Biso   1.000  C 
  C26      1.0000 0.69485  0.79404  0.49431  Biso   1.000  C 
  C27      1.0000 0.72842  0.81141  0.31733  Biso   1.000  C 
  C28      1.0000 0.40133  0.17231  0.35525  Biso   1.000  C 
  C29      1.0000 0.38753  0.08964  0.67150  Biso   1.000  C 
  C30      1.0000 0.90138  0.32761  0.85547  Biso   1.000  C 
  C31      1.0000 0.59868  0.17232  0.14477  Biso   1.000  C 
  C32      1.0000 0.69485  0.20597  0.99432  Biso   1.000  C 
  C33      1.0000 0.63873  0.15970  0.98938  Biso   1.000  C 
  C34      1.0000 0.61247  0.08965  0.82851  Biso   1.000  C 
  C35      1.0000 0.22835  0.68871  0.81705  Biso   1.000  C 
  C36      1.0000 0.28209  0.73150  0.82274  Biso   1.000  C 
  C37      1.0000 0.19479  0.70606  0.99408  Biso   1.000  C 
  C38      1.0000 0.78215  0.23139  0.82302  Biso   1.000  C 
  C39      1.0000 0.90137  0.67238  0.35546  Biso   1.000  C 
  C40      1.0000 0.80521  0.70605  0.50591  Biso   1.000  C 
  C41      1.0000 0.71791  0.73150  0.67726  Biso   1.000  C 
  C42      1.0000 0.77165  0.68871  0.68295  Biso   1.000  C 
  C43      1.0000 0.13869  0.65976  0.98920  Biso   1.000  C 
  C44      1.0000 0.09863  0.67239  0.14455  Biso   1.000  C 
  C45      1.0000 0.86131  0.65975  0.51080  Biso   1.000  C 
  C46      1.0000 0.72842  0.18859  0.81735  Biso   1.000  C 
  C47      1.0000 0.78215  0.76861  0.32301  Biso   1.000  C 
  C48      1.0000 0.88755  0.58965  0.67158  Biso   1.000  C 
  Fe1      1.0000 0.00000  0.53300  0.25000  Biso   1.000  Fe
  Fe2      1.0000 0.50000  0.03296  0.25000  Biso   1.000  Fe
  Fe3      1.0000 0.50000  0.96705  0.75000  Biso   1.000  Fe
  Fe4      1.0000 0.00000  0.46702  0.75000  Biso   1.000  Fe
  H1       1.0000 0.21217  0.35910  0.17161  Biso   1.000  H 
  H2       1.0000 0.80644  0.78368  0.18138  Biso   1.000  H 
  H3       1.0000 0.60069  0.78107  0.79760  Biso   1.000  H 
  H4       1.0000 0.62763  0.94325  0.17850  Biso   1.000  H 
  H5       1.0000 0.69363  0.71644  0.81891  Biso   1.000  H 
  H6       1.0000 0.78782  0.64088  0.82835  Biso   1.000  H 
  H7       1.0000 0.37237  0.05676  0.82150  Biso   1.000  H 
  H8       1.0000 0.60070  0.21895  0.29763  Biso   1.000  H 
  H9       1.0000 0.10063  0.28094  0.79731  Biso   1.000  H 
  H10      1.0000 0.12761  0.44328  0.17846  Biso   1.000  H 
  H11      1.0000 0.12761  0.55672  0.67847  Biso   1.000  H 
  H12      1.0000 0.80644  0.21631  0.68138  Biso   1.000  H 
  H13      1.0000 0.30637  0.71644  0.68109  Biso   1.000  H 
  H14      1.0000 0.89935  0.71904  0.20264  Biso   1.000  H 
  H15      1.0000 0.71225  0.85924  0.17194  Biso   1.000  H 
  H16      1.0000 0.30636  0.28354  0.18105  Biso   1.000  H 
  H17      1.0000 0.87240  0.55672  0.82153  Biso   1.000  H 
  H18      1.0000 0.28775  0.14076  0.82804  Biso   1.000  H 
  H19      1.0000 0.39931  0.78107  0.70238  Biso   1.000  H 
  H20      1.0000 0.37237  0.94324  0.32150  Biso   1.000  H 
  H21      1.0000 0.62763  0.05676  0.67850  Biso   1.000  H 
  H22      1.0000 0.89936  0.28095  0.70268  Biso   1.000  H 
  H23      1.0000 0.87240  0.44328  0.32154  Biso   1.000  H 
  H24      1.0000 0.69364  0.28355  0.31895  Biso   1.000  H 
  H25      1.0000 0.78784  0.35910  0.32839  Biso   1.000  H 
  H26      1.0000 0.71225  0.14076  0.67196  Biso   1.000  H 
  H27      1.0000 0.28775  0.85925  0.32804  Biso   1.000  H 
  H28      1.0000 0.19356  0.78370  0.31860  Biso   1.000  H 
  H29      1.0000 0.10065  0.71905  0.29735  Biso   1.000  H 
  H30      1.0000 0.39930  0.21893  0.20238  Biso   1.000  H 
  H31      1.0000 0.21218  0.64088  0.67165  Biso   1.000  H 
  H32      1.0000 0.19356  0.21631  0.81861  Biso   1.000  H 
  N1       1.0000 0.06111  0.56336  0.88503  Biso   1.000  N 
  N2       1.0000 0.93889  0.43665  0.11497  Biso   1.000  N 
  N3       1.0000 0.55246  0.11437  0.08013  Biso   1.000  N 
  N4       1.0000 0.55246  0.88565  0.58012  Biso   1.000  N 
  N5       1.0000 0.56113  0.93664  0.38507  Biso   1.000  N 
  N6       1.0000 0.56113  0.06338  0.88507  Biso   1.000  N 
  N7       1.0000 0.44754  0.11436  0.41988  Biso   1.000  N 
  N8       1.0000 0.06111  0.43665  0.38504  Biso   1.000  N 
  N9       1.0000 0.93889  0.56336  0.61498  Biso   1.000  N 
  N10      1.0000 0.05243  0.38562  0.58002  Biso   1.000  N 
  N11      1.0000 0.05243  0.61438  0.08002  Biso   1.000  N 
  N12      1.0000 0.43888  0.93663  0.11493  Biso   1.000  N 
  N13      1.0000 0.44755  0.88564  0.91987  Biso   1.000  N 
  N14      1.0000 0.43887  0.06337  0.61494  Biso   1.000  N 
  N15      1.0000 0.94757  0.38562  0.91999  Biso   1.000  N 
  N16      1.0000 0.94757  0.61438  0.41999  Biso   1.000  N 
