data_image0
_cell_length_a       21.6929
_cell_length_b       16.543
_cell_length_c       5.94325
_cell_angle_alpha    89.9997
_cell_angle_beta     103.247
_cell_angle_gamma    90.0001

_symmetry_space_group_name_H-M    "P 1"
_symmetry_int_tables_number       1

loop_
  _symmetry_equiv_pos_as_xyz
  'x, y, z'

loop_
  _atom_site_label
  _atom_site_occupancy
  _atom_site_fract_x
  _atom_site_fract_y
  _atom_site_fract_z
  _atom_site_thermal_displace_type
  _atom_site_B_iso_or_equiv
  _atom_site_type_symbol
  C1       1.0000 0.11785  0.58500  0.84915  Biso   1.000  C 
  C2       1.0000 0.72897  0.80478  0.32206  Biso   1.000  C 
  C3       1.0000 0.39939  0.15035  0.34528  Biso   1.000  C 
  C4       1.0000 0.38213  0.08499  0.65082  Biso   1.000  C 
  C5       1.0000 0.89941  0.34960  0.84539  Biso   1.000  C 
  C6       1.0000 0.60060  0.15036  0.15472  Biso   1.000  C 
  C7       1.0000 0.69650  0.19989  0.00163  Biso   1.000  C 
  C8       1.0000 0.64187  0.14844  0.00261  Biso   1.000  C 
  C9       1.0000 0.61787  0.08500  0.84918  Biso   1.000  C 
  C10      1.0000 0.22892  0.69529  0.82183  Biso   1.000  C 
  C11      1.0000 0.28101  0.74399  0.82034  Biso   1.000  C 
  C12      1.0000 0.19646  0.69994  0.00143  Biso   1.000  C 
  C13      1.0000 0.88215  0.58499  0.65085  Biso   1.000  C 
  C14      1.0000 0.78106  0.24393  0.82057  Biso   1.000  C 
  C15      1.0000 0.89942  0.65039  0.34539  Biso   1.000  C 
  C16      1.0000 0.80354  0.69993  0.49855  Biso   1.000  C 
  C17      1.0000 0.71899  0.74399  0.67965  Biso   1.000  C 
  C18      1.0000 0.77108  0.69528  0.67815  Biso   1.000  C 
  C19      1.0000 0.14185  0.64847  0.00250  Biso   1.000  C 
  C20      1.0000 0.10058  0.65040  0.15461  Biso   1.000  C 
  C21      1.0000 0.85815  0.64846  0.49749  Biso   1.000  C 
  C22      1.0000 0.72896  0.19523  0.82206  Biso   1.000  C 
  C23      1.0000 0.78107  0.75608  0.32056  Biso   1.000  C 
  C24      1.0000 0.69651  0.80012  0.50163  Biso   1.000  C 
  C25      1.0000 0.64188  0.85157  0.50262  Biso   1.000  C 
  C26      1.0000 0.60061  0.84964  0.65473  Biso   1.000  C 
  C27      1.0000 0.35812  0.14843  0.49738  Biso   1.000  C 
  C28      1.0000 0.30349  0.19987  0.49838  Biso   1.000  C 
  C29      1.0000 0.21893  0.24391  0.67944  Biso   1.000  C 
  C30      1.0000 0.27103  0.19521  0.67795  Biso   1.000  C 
  C31      1.0000 0.88215  0.41501  0.15086  Biso   1.000  C 
  C32      1.0000 0.85814  0.35154  0.99750  Biso   1.000  C 
  C33      1.0000 0.80353  0.30008  0.99856  Biso   1.000  C 
  C34      1.0000 0.71898  0.25603  0.17963  Biso   1.000  C 
  C35      1.0000 0.77107  0.30473  0.17815  Biso   1.000  C 
  C36      1.0000 0.38214  0.91501  0.15082  Biso   1.000  C 
  C37      1.0000 0.39940  0.84964  0.84528  Biso   1.000  C 
  C38      1.0000 0.30349  0.80012  0.99836  Biso   1.000  C 
  C39      1.0000 0.21893  0.75609  0.17941  Biso   1.000  C 
  C40      1.0000 0.27103  0.80479  0.17792  Biso   1.000  C 
  C41      1.0000 0.11785  0.41500  0.34915  Biso   1.000  C 
  C42      1.0000 0.10058  0.34960  0.65462  Biso   1.000  C 
  C43      1.0000 0.14185  0.35153  0.50251  Biso   1.000  C 
  C44      1.0000 0.19646  0.30006  0.50145  Biso   1.000  C 
  C45      1.0000 0.28101  0.25600  0.32036  Biso   1.000  C 
  C46      1.0000 0.22892  0.30471  0.32185  Biso   1.000  C 
  C47      1.0000 0.61787  0.91501  0.34918  Biso   1.000  C 
  C48      1.0000 0.35812  0.85157  0.99738  Biso   1.000  C 
  Fe1      1.0000 0.00000  0.47323  0.75001  Biso   1.000  Fe
  Fe2      1.0000 0.50000  0.97325  0.75000  Biso   1.000  Fe
  Fe3      1.0000 0.50000  0.02675  0.25001  Biso   1.000  Fe
  Fe4      1.0000 0.00000  0.52677  0.25000  Biso   1.000  Fe
  H1       1.0000 0.78697  0.34716  0.32017  Biso   1.000  H 
  H2       1.0000 0.39934  0.81037  0.69877  Biso   1.000  H 
  H3       1.0000 0.36560  0.93890  0.29671  Biso   1.000  H 
  H4       1.0000 0.63441  0.06110  0.70330  Biso   1.000  H 
  H5       1.0000 0.89937  0.31030  0.69895  Biso   1.000  H 
  H6       1.0000 0.86561  0.43891  0.29671  Biso   1.000  H 
  H7       1.0000 0.69564  0.26143  0.32314  Biso   1.000  H 
  H8       1.0000 0.19560  0.23852  0.82294  Biso   1.000  H 
  H9       1.0000 0.71306  0.15282  0.68003  Biso   1.000  H 
  H10      1.0000 0.28694  0.84720  0.31996  Biso   1.000  H 
  H11      1.0000 0.19560  0.76148  0.32292  Biso   1.000  H 
  H12      1.0000 0.10063  0.68970  0.30104  Biso   1.000  H 
  H13      1.0000 0.39934  0.18963  0.19877  Biso   1.000  H 
  H14      1.0000 0.21302  0.65287  0.67980  Biso   1.000  H 
  H15      1.0000 0.86560  0.56109  0.79670  Biso   1.000  H 
  H16      1.0000 0.28693  0.15280  0.81998  Biso   1.000  H 
  H17      1.0000 0.71306  0.84719  0.18002  Biso   1.000  H 
  H18      1.0000 0.89938  0.68970  0.19895  Biso   1.000  H 
  H19      1.0000 0.30435  0.73859  0.67684  Biso   1.000  H 
  H20      1.0000 0.80440  0.23854  0.67707  Biso   1.000  H 
  H21      1.0000 0.13440  0.56109  0.70329  Biso   1.000  H 
  H22      1.0000 0.13440  0.43891  0.20330  Biso   1.000  H 
  H23      1.0000 0.10063  0.31030  0.80105  Biso   1.000  H 
  H24      1.0000 0.30435  0.26140  0.17686  Biso   1.000  H 
  H25      1.0000 0.60066  0.18963  0.30121  Biso   1.000  H 
  H26      1.0000 0.36559  0.06109  0.79670  Biso   1.000  H 
  H27      1.0000 0.78698  0.65286  0.82018  Biso   1.000  H 
  H28      1.0000 0.69566  0.73859  0.82315  Biso   1.000  H 
  H29      1.0000 0.63441  0.93890  0.20329  Biso   1.000  H 
  H30      1.0000 0.60067  0.81037  0.80122  Biso   1.000  H 
  H31      1.0000 0.80440  0.76147  0.17705  Biso   1.000  H 
  H32      1.0000 0.21302  0.34713  0.17983  Biso   1.000  H 
  N1       1.0000 0.43352  0.05261  0.59393  Biso   1.000  N 
  N2       1.0000 0.44433  0.90704  0.90568  Biso   1.000  N 
  N3       1.0000 0.43352  0.94739  0.09394  Biso   1.000  N 
  N4       1.0000 0.05566  0.59298  0.09430  Biso   1.000  N 
  N5       1.0000 0.06648  0.44739  0.40607  Biso   1.000  N 
  N6       1.0000 0.05566  0.40702  0.59430  Biso   1.000  N 
  N7       1.0000 0.93352  0.55261  0.59394  Biso   1.000  N 
  N8       1.0000 0.94434  0.40702  0.90571  Biso   1.000  N 
  N9       1.0000 0.44433  0.09296  0.40567  Biso   1.000  N 
  N10      1.0000 0.56649  0.05261  0.90607  Biso   1.000  N 
  N11      1.0000 0.56649  0.94739  0.40607  Biso   1.000  N 
  N12      1.0000 0.55568  0.90704  0.59434  Biso   1.000  N 
  N13      1.0000 0.55567  0.09296  0.09433  Biso   1.000  N 
  N14      1.0000 0.93352  0.44739  0.09394  Biso   1.000  N 
  N15      1.0000 0.06648  0.55261  0.90607  Biso   1.000  N 
  N16      1.0000 0.94434  0.59298  0.40571  Biso   1.000  N 
