data_image0
_cell_length_a       22.9627
_cell_length_b       14.6658
_cell_length_c       5.84075
_cell_angle_alpha    89.9994
_cell_angle_beta     100.194
_cell_angle_gamma    90.0005

_symmetry_space_group_name_H-M    "P 1"
_symmetry_int_tables_number       1

loop_
  _symmetry_equiv_pos_as_xyz
  'x, y, z'

loop_
  _atom_site_label
  _atom_site_occupancy
  _atom_site_fract_x
  _atom_site_fract_y
  _atom_site_fract_z
  _atom_site_thermal_displace_type
  _atom_site_B_iso_or_equiv
  _atom_site_type_symbol
  C1       1.0000 0.11449  0.58680  0.83616  Biso   1.000  C 
  C2       1.0000 0.72898  0.80991  0.32041  Biso   1.000  C 
  C3       1.0000 0.40048  0.16221  0.34978  Biso   1.000  C 
  C4       1.0000 0.38549  0.08675  0.66338  Biso   1.000  C 
  C5       1.0000 0.90047  0.33770  0.85027  Biso   1.000  C 
  C6       1.0000 0.59951  0.16220  0.15024  Biso   1.000  C 
  C7       1.0000 0.69555  0.20276  0.99823  Biso   1.000  C 
  C8       1.0000 0.64003  0.15396  0.99580  Biso   1.000  C 
  C9       1.0000 0.61451  0.08674  0.83665  Biso   1.000  C 
  C10      1.0000 0.22897  0.69024  0.81964  Biso   1.000  C 
  C11      1.0000 0.28202  0.73610  0.82176  Biso   1.000  C 
  C12      1.0000 0.19551  0.70296  0.99737  Biso   1.000  C 
  C13      1.0000 0.88551  0.58682  0.66383  Biso   1.000  C 
  C14      1.0000 0.78206  0.23592  0.82267  Biso   1.000  C 
  C15      1.0000 0.90047  0.66231  0.35024  Biso   1.000  C 
  C16      1.0000 0.80449  0.70298  0.50262  Biso   1.000  C 
  C17      1.0000 0.71798  0.73610  0.67821  Biso   1.000  C 
  C18      1.0000 0.77103  0.69025  0.68033  Biso   1.000  C 
  C19      1.0000 0.14001  0.65409  0.99513  Biso   1.000  C 
  C20      1.0000 0.09953  0.66229  0.14975  Biso   1.000  C 
  C21      1.0000 0.86000  0.65412  0.50486  Biso   1.000  C 
  C22      1.0000 0.72901  0.19006  0.82048  Biso   1.000  C 
  C23      1.0000 0.78204  0.76408  0.32258  Biso   1.000  C 
  C24      1.0000 0.69554  0.79720  0.49817  Biso   1.000  C 
  C25      1.0000 0.64002  0.84602  0.49578  Biso   1.000  C 
  C26      1.0000 0.59950  0.83781  0.65023  Biso   1.000  C 
  C27      1.0000 0.35997  0.15398  0.50423  Biso   1.000  C 
  C28      1.0000 0.30445  0.20278  0.50182  Biso   1.000  C 
  C29      1.0000 0.21794  0.23593  0.67735  Biso   1.000  C 
  C30      1.0000 0.27099  0.19007  0.67955  Biso   1.000  C 
  C31      1.0000 0.88552  0.41320  0.16386  Biso   1.000  C 
  C32      1.0000 0.86000  0.34590  0.00491  Biso   1.000  C 
  C33      1.0000 0.80450  0.29704  0.00269  Biso   1.000  C 
  C34      1.0000 0.71799  0.26387  0.17826  Biso   1.000  C 
  C35      1.0000 0.77103  0.30975  0.18039  Biso   1.000  C 
  C36      1.0000 0.38549  0.91325  0.16335  Biso   1.000  C 
  C37      1.0000 0.40050  0.83780  0.84977  Biso   1.000  C 
  C38      1.0000 0.30446  0.79719  0.00180  Biso   1.000  C 
  C39      1.0000 0.21796  0.76406  0.17739  Biso   1.000  C 
  C40      1.0000 0.27101  0.80990  0.17957  Biso   1.000  C 
  C41      1.0000 0.11448  0.41320  0.33613  Biso   1.000  C 
  C42      1.0000 0.09953  0.33771  0.64973  Biso   1.000  C 
  C43      1.0000 0.14000  0.34591  0.49510  Biso   1.000  C 
  C44      1.0000 0.19551  0.29704  0.49733  Biso   1.000  C 
  C45      1.0000 0.28202  0.26389  0.32177  Biso   1.000  C 
  C46      1.0000 0.22897  0.30976  0.31963  Biso   1.000  C 
  C47      1.0000 0.61451  0.91326  0.33664  Biso   1.000  C 
  C48      1.0000 0.35998  0.84602  0.00421  Biso   1.000  C 
  Fe1      1.0000 1.00000  0.46945  0.74997  Biso   1.000  Fe
  Fe2      1.0000 0.50000  0.96955  0.74999  Biso   1.000  Fe
  Fe3      1.0000 0.50000  0.03047  0.25000  Biso   1.000  Fe
  Fe4      1.0000 1.00000  0.53055  0.24999  Biso   1.000  Fe
  H1       1.0000 0.78674  0.35638  0.32359  Biso   1.000  H 
  H2       1.0000 0.39910  0.79433  0.69835  Biso   1.000  H 
  H3       1.0000 0.36987  0.94231  0.31244  Biso   1.000  H 
  H4       1.0000 0.63013  0.05766  0.68758  Biso   1.000  H 
  H5       1.0000 0.89904  0.29420  0.69891  Biso   1.000  H 
  H6       1.0000 0.86992  0.44227  0.31297  Biso   1.000  H 
  H7       1.0000 0.69378  0.27548  0.32030  Biso   1.000  H 
  H8       1.0000 0.19377  0.22434  0.81950  Biso   1.000  H 
  H9       1.0000 0.71325  0.14353  0.67717  Biso   1.000  H 
  H10      1.0000 0.28678  0.85644  0.32286  Biso   1.000  H 
  H11      1.0000 0.19379  0.77567  0.31955  Biso   1.000  H 
  H12      1.0000 0.10096  0.70578  0.30114  Biso   1.000  H 
  H13      1.0000 0.39908  0.20568  0.19836  Biso   1.000  H 
  H14      1.0000 0.21324  0.64363  0.67643  Biso   1.000  H 
  H15      1.0000 0.86990  0.55776  0.81295  Biso   1.000  H 
  H16      1.0000 0.28676  0.14354  0.82287  Biso   1.000  H 
  H17      1.0000 0.71321  0.85645  0.17710  Biso   1.000  H 
  H18      1.0000 0.89904  0.70580  0.19885  Biso   1.000  H 
  H19      1.0000 0.30622  0.72449  0.67970  Biso   1.000  H 
  H20      1.0000 0.80623  0.22434  0.68051  Biso   1.000  H 
  H21      1.0000 0.13010  0.55773  0.68704  Biso   1.000  H 
  H22      1.0000 0.13009  0.44227  0.18702  Biso   1.000  H 
  H23      1.0000 0.10096  0.29422  0.80111  Biso   1.000  H 
  H24      1.0000 0.30623  0.27550  0.17975  Biso   1.000  H 
  H25      1.0000 0.60092  0.20566  0.30168  Biso   1.000  H 
  H26      1.0000 0.36988  0.05767  0.81247  Biso   1.000  H 
  H27      1.0000 0.78676  0.64364  0.82354  Biso   1.000  H 
  H28      1.0000 0.69378  0.72448  0.82026  Biso   1.000  H 
  H29      1.0000 0.63014  0.94233  0.18757  Biso   1.000  H 
  H30      1.0000 0.60090  0.79435  0.80166  Biso   1.000  H 
  H31      1.0000 0.80621  0.77569  0.18042  Biso   1.000  H 
  H32      1.0000 0.21326  0.35638  0.17643  Biso   1.000  H 
  N1       1.0000 0.43695  0.05819  0.60725  Biso   1.000  N 
  N2       1.0000 0.44636  0.89529  0.91397  Biso   1.000  N 
  N3       1.0000 0.43695  0.94182  0.10725  Biso   1.000  N 
  N4       1.0000 0.05368  0.60473  0.08582  Biso   1.000  N 
  N5       1.0000 0.06306  0.44182  0.39251  Biso   1.000  N 
  N6       1.0000 0.05368  0.39527  0.58581  Biso   1.000  N 
  N7       1.0000 0.93693  0.55819  0.60747  Biso   1.000  N 
  N8       1.0000 0.94632  0.39525  0.91416  Biso   1.000  N 
  N9       1.0000 0.44636  0.10473  0.41396  Biso   1.000  N 
  N10      1.0000 0.56304  0.05819  0.89274  Biso   1.000  N 
  N11      1.0000 0.56305  0.94183  0.39275  Biso   1.000  N 
  N12      1.0000 0.55364  0.89530  0.58603  Biso   1.000  N 
  N13      1.0000 0.55364  0.10473  0.08603  Biso   1.000  N 
  N14      1.0000 0.93694  0.44181  0.10747  Biso   1.000  N 
  N15      1.0000 0.06307  0.55818  0.89251  Biso   1.000  N 
  N16      1.0000 0.94631  0.60474  0.41416  Biso   1.000  N 
