data_image0
_cell_length_a       20.6413
_cell_length_b       17.7483
_cell_length_c       6.21488
_cell_angle_alpha    89.9998
_cell_angle_beta     103.171
_cell_angle_gamma    90

_symmetry_space_group_name_H-M    "P 1"
_symmetry_int_tables_number       1

loop_
  _symmetry_equiv_pos_as_xyz
  'x, y, z'

loop_
  _atom_site_label
  _atom_site_occupancy
  _atom_site_fract_x
  _atom_site_fract_y
  _atom_site_fract_z
  _atom_site_thermal_displace_type
  _atom_site_B_iso_or_equiv
  _atom_site_type_symbol
  C1       1.0000 0.11975  0.58658  0.85402  Biso   1.000  C 
  C2       1.0000 0.72946  0.79998  0.32605  Biso   1.000  C 
  C3       1.0000 0.39839  0.14088  0.34406  Biso   1.000  C 
  C4       1.0000 0.38022  0.08656  0.64588  Biso   1.000  C 
  C5       1.0000 0.89841  0.35909  0.84416  Biso   1.000  C 
  C6       1.0000 0.60161  0.14088  0.15594  Biso   1.000  C 
  C7       1.0000 0.69712  0.19824  0.00267  Biso   1.000  C 
  C8       1.0000 0.64305  0.14531  0.00477  Biso   1.000  C 
  C9       1.0000 0.61978  0.08656  0.85411  Biso   1.000  C 
  C10      1.0000 0.22940  0.70006  0.82590  Biso   1.000  C 
  C11      1.0000 0.28085  0.75036  0.82335  Biso   1.000  C 
  C12      1.0000 0.19707  0.69828  0.00251  Biso   1.000  C 
  C13      1.0000 0.88025  0.58658  0.64598  Biso   1.000  C 
  C14      1.0000 0.78092  0.25030  0.82354  Biso   1.000  C 
  C15      1.0000 0.89842  0.64090  0.34414  Biso   1.000  C 
  C16      1.0000 0.80293  0.69828  0.49749  Biso   1.000  C 
  C17      1.0000 0.71915  0.75036  0.67666  Biso   1.000  C 
  C18      1.0000 0.77060  0.70006  0.67411  Biso   1.000  C 
  C19      1.0000 0.14301  0.64535  0.00464  Biso   1.000  C 
  C20      1.0000 0.10158  0.64090  0.15586  Biso   1.000  C 
  C21      1.0000 0.85699  0.64534  0.49536  Biso   1.000  C 
  C22      1.0000 0.72946  0.20002  0.82604  Biso   1.000  C 
  C23      1.0000 0.78092  0.74970  0.32356  Biso   1.000  C 
  C24      1.0000 0.69713  0.80176  0.50269  Biso   1.000  C 
  C25      1.0000 0.64306  0.85469  0.50478  Biso   1.000  C 
  C26      1.0000 0.60162  0.85912  0.65594  Biso   1.000  C 
  C27      1.0000 0.35694  0.14531  0.49522  Biso   1.000  C 
  C28      1.0000 0.30288  0.19824  0.49732  Biso   1.000  C 
  C29      1.0000 0.21908  0.25030  0.67644  Biso   1.000  C 
  C30      1.0000 0.27054  0.20002  0.67394  Biso   1.000  C 
  C31      1.0000 0.88025  0.41342  0.14598  Biso   1.000  C 
  C32      1.0000 0.85698  0.35465  0.99536  Biso   1.000  C 
  C33      1.0000 0.80293  0.30172  0.99748  Biso   1.000  C 
  C34      1.0000 0.71915  0.24963  0.17665  Biso   1.000  C 
  C35      1.0000 0.77060  0.29993  0.17410  Biso   1.000  C 
  C36      1.0000 0.38022  0.91344  0.14590  Biso   1.000  C 
  C37      1.0000 0.39838  0.85912  0.84407  Biso   1.000  C 
  C38      1.0000 0.30287  0.80176  0.99733  Biso   1.000  C 
  C39      1.0000 0.21908  0.74970  0.17645  Biso   1.000  C 
  C40      1.0000 0.27054  0.79998  0.17395  Biso   1.000  C 
  C41      1.0000 0.11975  0.41342  0.35401  Biso   1.000  C 
  C42      1.0000 0.10159  0.35910  0.65583  Biso   1.000  C 
  C43      1.0000 0.14302  0.35466  0.50463  Biso   1.000  C 
  C44      1.0000 0.19708  0.30173  0.50252  Biso   1.000  C 
  C45      1.0000 0.28085  0.24964  0.32335  Biso   1.000  C 
  C46      1.0000 0.22941  0.29993  0.32589  Biso   1.000  C 
  C47      1.0000 0.61977  0.91344  0.35411  Biso   1.000  C 
  C48      1.0000 0.35694  0.85469  0.99523  Biso   1.000  C 
  Fe1      1.0000 1.00000  0.47767  0.75000  Biso   1.000  Fe
  Fe2      1.0000 0.50000  0.97766  0.75001  Biso   1.000  Fe
  Fe3      1.0000 0.50000  0.02233  0.25000  Biso   1.000  Fe
  Fe4      1.0000 0.00000  0.52233  0.25000  Biso   1.000  Fe
  H1       1.0000 0.78603  0.33861  0.31281  Biso   1.000  H 
  H2       1.0000 0.39904  0.82481  0.69986  Biso   1.000  H 
  H3       1.0000 0.36323  0.93182  0.29041  Biso   1.000  H 
  H4       1.0000 0.63677  0.06818  0.70960  Biso   1.000  H 
  H5       1.0000 0.89907  0.32477  0.69997  Biso   1.000  H 
  H6       1.0000 0.86326  0.43179  0.29049  Biso   1.000  H 
  H7       1.0000 0.69580  0.25023  0.31740  Biso   1.000  H 
  H8       1.0000 0.19574  0.24973  0.81723  Biso   1.000  H 
  H9       1.0000 0.71400  0.16136  0.68729  Biso   1.000  H 
  H10      1.0000 0.28599  0.83865  0.31270  Biso   1.000  H 
  H11      1.0000 0.19574  0.75028  0.31723  Biso   1.000  H 
  H12      1.0000 0.10092  0.67524  0.30004  Biso   1.000  H 
  H13      1.0000 0.39905  0.17520  0.19986  Biso   1.000  H 
  H14      1.0000 0.21397  0.66139  0.68719  Biso   1.000  H 
  H15      1.0000 0.86325  0.56821  0.79048  Biso   1.000  H 
  H16      1.0000 0.28599  0.16136  0.81270  Biso   1.000  H 
  H17      1.0000 0.71400  0.83865  0.18731  Biso   1.000  H 
  H18      1.0000 0.89908  0.67524  0.19995  Biso   1.000  H 
  H19      1.0000 0.30421  0.74976  0.68260  Biso   1.000  H 
  H20      1.0000 0.80425  0.24973  0.68275  Biso   1.000  H 
  H21      1.0000 0.13675  0.56821  0.70952  Biso   1.000  H 
  H22      1.0000 0.13674  0.43180  0.20951  Biso   1.000  H 
  H23      1.0000 0.10093  0.32477  0.80003  Biso   1.000  H 
  H24      1.0000 0.30421  0.25024  0.18259  Biso   1.000  H 
  H25      1.0000 0.60095  0.17519  0.30015  Biso   1.000  H 
  H26      1.0000 0.36323  0.06818  0.79039  Biso   1.000  H 
  H27      1.0000 0.78604  0.66139  0.81282  Biso   1.000  H 
  H28      1.0000 0.69580  0.74976  0.81741  Biso   1.000  H 
  H29      1.0000 0.63677  0.93182  0.20960  Biso   1.000  H 
  H30      1.0000 0.60096  0.82481  0.80015  Biso   1.000  H 
  H31      1.0000 0.80426  0.75028  0.18277  Biso   1.000  H 
  H32      1.0000 0.21397  0.33861  0.18719  Biso   1.000  H 
  N1       1.0000 0.43125  0.05071  0.58804  Biso   1.000  N 
  N2       1.0000 0.44265  0.91572  0.90168  Biso   1.000  N 
  N3       1.0000 0.43125  0.94928  0.08805  Biso   1.000  N 
  N4       1.0000 0.05732  0.58429  0.09828  Biso   1.000  N 
  N5       1.0000 0.06874  0.44928  0.41191  Biso   1.000  N 
  N6       1.0000 0.05733  0.41571  0.59827  Biso   1.000  N 
  N7       1.0000 0.93126  0.55073  0.58808  Biso   1.000  N 
  N8       1.0000 0.94267  0.41570  0.90172  Biso   1.000  N 
  N9       1.0000 0.44265  0.08428  0.40167  Biso   1.000  N 
  N10      1.0000 0.56875  0.05071  0.91197  Biso   1.000  N 
  N11      1.0000 0.56875  0.94928  0.41196  Biso   1.000  N 
  N12      1.0000 0.55735  0.91572  0.59833  Biso   1.000  N 
  N13      1.0000 0.55735  0.08428  0.09834  Biso   1.000  N 
  N14      1.0000 0.93126  0.44927  0.08809  Biso   1.000  N 
  N15      1.0000 0.06874  0.55073  0.91192  Biso   1.000  N 
  N16      1.0000 0.94267  0.58429  0.40172  Biso   1.000  N 
