data_image0
_cell_length_a       19.2153
_cell_length_b       19.0396
_cell_length_c       6.97759
_cell_angle_alpha    90.0004
_cell_angle_beta     95.2293
_cell_angle_gamma    90

_symmetry_space_group_name_H-M    "P 1"
_symmetry_int_tables_number       1

loop_
  _symmetry_equiv_pos_as_xyz
  'x, y, z'

loop_
  _atom_site_label
  _atom_site_occupancy
  _atom_site_fract_x
  _atom_site_fract_y
  _atom_site_fract_z
  _atom_site_thermal_displace_type
  _atom_site_B_iso_or_equiv
  _atom_site_type_symbol
  C1       1.0000 0.11686  0.59861  0.84847  Biso   1.000  C 
  C2       1.0000 0.72351  0.78088  0.32872  Biso   1.000  C 
  C3       1.0000 0.39563  0.12186  0.34693  Biso   1.000  C 
  C4       1.0000 0.38298  0.09850  0.65157  Biso   1.000  C 
  C5       1.0000 0.89569  0.37798  0.84682  Biso   1.000  C 
  C6       1.0000 0.60437  0.12186  0.15308  Biso   1.000  C 
  C7       1.0000 0.69707  0.19691  0.00051  Biso   1.000  C 
  C8       1.0000 0.64304  0.14264  0.00077  Biso   1.000  C 
  C9       1.0000 0.61701  0.09850  0.84843  Biso   1.000  C 
  C10      1.0000 0.22356  0.71908  0.82862  Biso   1.000  C 
  C11      1.0000 0.27487  0.77061  0.82814  Biso   1.000  C 
  C12      1.0000 0.19715  0.69683  0.00043  Biso   1.000  C 
  C13      1.0000 0.88314  0.59862  0.65152  Biso   1.000  C 
  C14      1.0000 0.77482  0.27066  0.82826  Biso   1.000  C 
  C15      1.0000 0.89569  0.62202  0.34682  Biso   1.000  C 
  C16      1.0000 0.80285  0.69684  0.49957  Biso   1.000  C 
  C17      1.0000 0.72513  0.77061  0.67186  Biso   1.000  C 
  C18      1.0000 0.77644  0.71909  0.67138  Biso   1.000  C 
  C19      1.0000 0.14306  0.64264  0.00071  Biso   1.000  C 
  C20      1.0000 0.10431  0.62201  0.15318  Biso   1.000  C 
  C21      1.0000 0.85694  0.64264  0.49928  Biso   1.000  C 
  C22      1.0000 0.72351  0.21913  0.82873  Biso   1.000  C 
  C23      1.0000 0.77482  0.72935  0.32825  Biso   1.000  C 
  C24      1.0000 0.69707  0.80309  0.50051  Biso   1.000  C 
  C25      1.0000 0.64304  0.85736  0.50076  Biso   1.000  C 
  C26      1.0000 0.60437  0.87814  0.65307  Biso   1.000  C 
  C27      1.0000 0.35696  0.14264  0.49924  Biso   1.000  C 
  C28      1.0000 0.30293  0.19691  0.49949  Biso   1.000  C 
  C29      1.0000 0.22518  0.27066  0.67174  Biso   1.000  C 
  C30      1.0000 0.27649  0.21913  0.67127  Biso   1.000  C 
  C31      1.0000 0.88314  0.40138  0.15153  Biso   1.000  C 
  C32      1.0000 0.85694  0.35736  0.99929  Biso   1.000  C 
  C33      1.0000 0.80286  0.30316  0.99957  Biso   1.000  C 
  C34      1.0000 0.72513  0.22939  0.17187  Biso   1.000  C 
  C35      1.0000 0.77644  0.28091  0.17139  Biso   1.000  C 
  C36      1.0000 0.38299  0.90150  0.15158  Biso   1.000  C 
  C37      1.0000 0.39563  0.87814  0.84693  Biso   1.000  C 
  C38      1.0000 0.30294  0.80309  0.99949  Biso   1.000  C 
  C39      1.0000 0.22518  0.72934  0.17175  Biso   1.000  C 
  C40      1.0000 0.27649  0.78087  0.17128  Biso   1.000  C 
  C41      1.0000 0.11686  0.40138  0.34847  Biso   1.000  C 
  C42      1.0000 0.10431  0.37798  0.65317  Biso   1.000  C 
  C43      1.0000 0.14306  0.35736  0.50071  Biso   1.000  C 
  C44      1.0000 0.19714  0.30316  0.50043  Biso   1.000  C 
  C45      1.0000 0.27487  0.22939  0.32814  Biso   1.000  C 
  C46      1.0000 0.22356  0.28091  0.32862  Biso   1.000  C 
  C47      1.0000 0.61701  0.90150  0.34842  Biso   1.000  C 
  C48      1.0000 0.35696  0.85736  0.99924  Biso   1.000  C 
  Fe1      1.0000 1.00000  0.49163  0.74999  Biso   1.000  Fe
  Fe2      1.0000 0.50000  0.99140  0.75000  Biso   1.000  Fe
  Fe3      1.0000 0.50000  0.00860  0.25000  Biso   1.000  Fe
  Fe4      1.0000 1.00000  0.50838  0.25000  Biso   1.000  Fe
  H1       1.0000 0.79696  0.30403  0.30808  Biso   1.000  H 
  H2       1.0000 0.39419  0.85801  0.70095  Biso   1.000  H 
  H3       1.0000 0.36825  0.90491  0.29797  Biso   1.000  H 
  H4       1.0000 0.63175  0.09509  0.70205  Biso   1.000  H 
  H5       1.0000 0.89391  0.35807  0.70058  Biso   1.000  H 
  H6       1.0000 0.86817  0.40517  0.29762  Biso   1.000  H 
  H7       1.0000 0.70691  0.21359  0.30904  Biso   1.000  H 
  H8       1.0000 0.20693  0.28644  0.80891  Biso   1.000  H 
  H9       1.0000 0.70301  0.19600  0.69200  Biso   1.000  H 
  H10      1.0000 0.29698  0.80400  0.30800  Biso   1.000  H 
  H11      1.0000 0.20694  0.71356  0.30891  Biso   1.000  H 
  H12      1.0000 0.10609  0.64192  0.29943  Biso   1.000  H 
  H13      1.0000 0.39419  0.14199  0.20095  Biso   1.000  H 
  H14      1.0000 0.20305  0.69596  0.69192  Biso   1.000  H 
  H15      1.0000 0.86817  0.59483  0.79761  Biso   1.000  H 
  H16      1.0000 0.29698  0.19600  0.80800  Biso   1.000  H 
  H17      1.0000 0.70302  0.80401  0.19200  Biso   1.000  H 
  H18      1.0000 0.89391  0.64193  0.20057  Biso   1.000  H 
  H19      1.0000 0.29310  0.78640  0.69097  Biso   1.000  H 
  H20      1.0000 0.79306  0.28644  0.69109  Biso   1.000  H 
  H21      1.0000 0.13183  0.59483  0.70238  Biso   1.000  H 
  H22      1.0000 0.13183  0.40517  0.20238  Biso   1.000  H 
  H23      1.0000 0.10608  0.35807  0.79942  Biso   1.000  H 
  H24      1.0000 0.29310  0.21359  0.19096  Biso   1.000  H 
  H25      1.0000 0.60581  0.14199  0.29906  Biso   1.000  H 
  H26      1.0000 0.36825  0.09508  0.79796  Biso   1.000  H 
  H27      1.0000 0.79695  0.69596  0.80807  Biso   1.000  H 
  H28      1.0000 0.70690  0.78640  0.80903  Biso   1.000  H 
  H29      1.0000 0.63175  0.90491  0.20204  Biso   1.000  H 
  H30      1.0000 0.60581  0.85801  0.79905  Biso   1.000  H 
  H31      1.0000 0.79307  0.71356  0.19109  Biso   1.000  H 
  H32      1.0000 0.20304  0.30403  0.19192  Biso   1.000  H 
  N1       1.0000 0.43267  0.05532  0.59380  Biso   1.000  N 
  N2       1.0000 0.44055  0.93027  0.90412  Biso   1.000  N 
  N3       1.0000 0.43267  0.94468  0.09380  Biso   1.000  N 
  N4       1.0000 0.05901  0.57030  0.09579  Biso   1.000  N 
  N5       1.0000 0.06674  0.44415  0.40604  Biso   1.000  N 
  N6       1.0000 0.05901  0.42970  0.59579  Biso   1.000  N 
  N7       1.0000 0.93326  0.55585  0.59395  Biso   1.000  N 
  N8       1.0000 0.94099  0.42970  0.90421  Biso   1.000  N 
  N9       1.0000 0.44055  0.06973  0.40412  Biso   1.000  N 
  N10      1.0000 0.56733  0.05532  0.90621  Biso   1.000  N 
  N11      1.0000 0.56733  0.94468  0.40620  Biso   1.000  N 
  N12      1.0000 0.55945  0.93028  0.59588  Biso   1.000  N 
  N13      1.0000 0.55945  0.06973  0.09589  Biso   1.000  N 
  N14      1.0000 0.93326  0.44415  0.09395  Biso   1.000  N 
  N15      1.0000 0.06674  0.55585  0.90604  Biso   1.000  N 
  N16      1.0000 0.94099  0.57030  0.40420  Biso   1.000  N 
