data_image0
_cell_length_a       27.646
_cell_length_b       6.66807
_cell_length_c       9.5437
_cell_angle_alpha    90.098
_cell_angle_beta     90.0276
_cell_angle_gamma    91.8571

_symmetry_space_group_name_H-M    "P 1"
_symmetry_int_tables_number       1

loop_
  _symmetry_equiv_pos_as_xyz
  'x, y, z'

loop_
  _atom_site_label
  _atom_site_occupancy
  _atom_site_fract_x
  _atom_site_fract_y
  _atom_site_fract_z
  _atom_site_thermal_displace_type
  _atom_site_B_iso_or_equiv
  _atom_site_type_symbol
  Al1      1.0000 0.00025  0.49936  0.00289  Biso   1.000  Al
  Al2      1.0000 0.50028  0.99730  0.50285  Biso   1.000  Al
  Al3      1.0000 0.00025  0.99938  0.99682  Biso   1.000  Al
  Al4      1.0000 0.50028  0.49725  0.49643  Biso   1.000  Al
  C1       1.0000 0.69235  0.57840  0.23623  Biso   1.000  C 
  C2       1.0000 0.65356  0.43163  0.65853  Biso   1.000  C 
  C3       1.0000 0.92785  0.74065  0.14137  Biso   1.000  C 
  C4       1.0000 0.72472  0.25167  0.73035  Biso   1.000  C 
  C5       1.0000 0.70081  0.92716  0.30424  Biso   1.000  C 
  C6       1.0000 0.62425  0.25829  0.67818  Biso   1.000  C 
  C7       1.0000 0.57213  0.25926  0.63812  Biso   1.000  C 
  C8       1.0000 0.22224  0.75114  0.24325  Biso   1.000  C 
  C9       1.0000 0.85246  0.42079  0.82826  Biso   1.000  C 
  C10      1.0000 0.80289  0.42217  0.80380  Biso   1.000  C 
  C11      1.0000 0.12197  0.75985  0.18877  Biso   1.000  C 
  C12      1.0000 0.35011  0.91772  0.34130  Biso   1.000  C 
  C13      1.0000 0.30048  0.91958  0.31795  Biso   1.000  C 
  C14      1.0000 0.42999  0.23903  0.64950  Biso   1.000  C 
  C15      1.0000 0.20339  0.42780  0.81879  Biso   1.000  C 
  C16      1.0000 0.15387  0.43234  0.84305  Biso   1.000  C 
  C17      1.0000 0.07010  0.76129  0.14609  Biso   1.000  C 
  C18      1.0000 0.85062  0.57003  0.22637  Biso   1.000  C 
  C19      1.0000 0.15146  0.93304  0.17074  Biso   1.000  C 
  C20      1.0000 0.20089  0.92801  0.19657  Biso   1.000  C 
  C21      1.0000 0.35321  0.06984  0.73952  Biso   1.000  C 
  C22      1.0000 0.64299  0.58088  0.26416  Biso   1.000  C 
  C23      1.0000 0.30389  0.07331  0.76792  Biso   1.000  C 
  C24      1.0000 0.14557  0.08197  0.77753  Biso   1.000  C 
  C25      1.0000 0.80119  0.57293  0.25302  Biso   1.000  C 
  C26      1.0000 0.65137  0.93121  0.32993  Biso   1.000  C 
  C27      1.0000 0.87562  0.74389  0.18001  Biso   1.000  C 
  C28      1.0000 0.19503  0.07893  0.75114  Biso   1.000  C 
  C29      1.0000 0.14273  0.58269  0.23527  Biso   1.000  C 
  C30      1.0000 0.37555  0.74160  0.31983  Biso   1.000  C 
  C31      1.0000 0.72234  0.75084  0.25695  Biso   1.000  C 
  C32      1.0000 0.64533  0.08185  0.72483  Biso   1.000  C 
  C33      1.0000 0.69477  0.07940  0.75169  Biso   1.000  C 
  C34      1.0000 0.62205  0.75755  0.31123  Biso   1.000  C 
  C35      1.0000 0.22500  0.25132  0.77207  Biso   1.000  C 
  C36      1.0000 0.77497  0.74788  0.23092  Biso   1.000  C 
  C37      1.0000 0.80044  0.92095  0.18323  Biso   1.000  C 
  C38      1.0000 0.12450  0.25902  0.82338  Biso   1.000  C 
  C39      1.0000 0.07229  0.26064  0.86238  Biso   1.000  C 
  C40      1.0000 0.27487  0.74716  0.26933  Biso   1.000  C 
  C41      1.0000 0.85004  0.91984  0.15964  Biso   1.000  C 
  C42      1.0000 0.37807  0.24309  0.69146  Biso   1.000  C 
  C43      1.0000 0.57017  0.75842  0.35379  Biso   1.000  C 
  C44      1.0000 0.30094  0.57196  0.24625  Biso   1.000  C 
  C45      1.0000 0.19208  0.57916  0.26325  Biso   1.000  C 
  C46      1.0000 0.30300  0.42088  0.69705  Biso   1.000  C 
  C47      1.0000 0.70307  0.42761  0.68320  Biso   1.000  C 
  C48      1.0000 0.87796  0.24433  0.80883  Biso   1.000  C 
  C49      1.0000 0.77739  0.24888  0.75612  Biso   1.000  C 
  C50      1.0000 0.42786  0.73798  0.35800  Biso   1.000  C 
  C51      1.0000 0.80358  0.07365  0.73442  Biso   1.000  C 
  C52      1.0000 0.27764  0.24823  0.74588  Biso   1.000  C 
  C53      1.0000 0.92998  0.24036  0.85001  Biso   1.000  C 
  C54      1.0000 0.35250  0.41923  0.67174  Biso   1.000  C 
  C55      1.0000 0.35039  0.56829  0.27271  Biso   1.000  C 
  C56      1.0000 0.85295  0.07048  0.76197  Biso   1.000  C 
  H1       1.0000 0.28333  0.55638  0.67471  Biso   1.000  H 
  H2       1.0000 0.48667  0.73964  0.67955  Biso   1.000  H 
  H3       1.0000 0.28539  0.93919  0.80938  Biso   1.000  H 
  H4       1.0000 0.37309  0.93302  0.75450  Biso   1.000  H 
  H5       1.0000 0.78257  0.43840  0.29342  Biso   1.000  H 
  H6       1.0000 0.48356  0.23846  0.32199  Biso   1.000  H 
  H7       1.0000 0.72562  0.56130  0.66184  Biso   1.000  H 
  H8       1.0000 0.13742  0.56832  0.88114  Biso   1.000  H 
  H9       1.0000 0.98375  0.24188  0.17774  Biso   1.000  H 
  H10      1.0000 0.22365  0.06143  0.17614  Biso   1.000  H 
  H11      1.0000 0.72341  0.06097  0.32517  Biso   1.000  H 
  H12      1.0000 0.22599  0.56154  0.84004  Biso   1.000  H 
  H13      1.0000 0.37017  0.43140  0.25658  Biso   1.000  H 
  H14      1.0000 0.63708  0.56713  0.62001  Biso   1.000  H 
  H15      1.0000 0.78496  0.93897  0.69387  Biso   1.000  H 
  H16      1.0000 0.87278  0.93341  0.74727  Biso   1.000  H 
  H17      1.0000 0.87051  0.43327  0.24167  Biso   1.000  H 
  H18      1.0000 0.28219  0.43792  0.20514  Biso   1.000  H 
  H19      1.0000 0.12258  0.94760  0.76317  Biso   1.000  H 
  H20      1.0000 0.63498  0.06684  0.36884  Biso   1.000  H 
  H21      1.0000 0.37174  0.55238  0.63188  Biso   1.000  H 
  H22      1.0000 0.86942  0.05346  0.12101  Biso   1.000  H 
  H23      1.0000 0.87181  0.55447  0.86719  Biso   1.000  H 
  H24      1.0000 0.71043  0.94267  0.79156  Biso   1.000  H 
  H25      1.0000 0.20752  0.44173  0.30270  Biso   1.000  H 
  H26      1.0000 0.11960  0.44856  0.24854  Biso   1.000  H 
  H27      1.0000 0.78330  0.55803  0.82584  Biso   1.000  H 
  H28      1.0000 0.62236  0.94751  0.73934  Biso   1.000  H 
  H29      1.0000 0.21067  0.94165  0.71185  Biso   1.000  H 
  H30      1.0000 0.13523  0.06912  0.13227  Biso   1.000  H 
  H31      1.0000 0.70792  0.44143  0.19618  Biso   1.000  H 
  H32      1.0000 0.36958  0.05090  0.38059  Biso   1.000  H 
  H33      1.0000 0.28098  0.05528  0.34120  Biso   1.000  H 
  H34      1.0000 0.98691  0.74134  0.81967  Biso   1.000  H 
  H35      1.0000 0.62000  0.44635  0.25035  Biso   1.000  H 
  H36      1.0000 0.78082  0.05657  0.16086  Biso   1.000  H 
  O1       1.0000 0.54722  0.58992  0.36247  Biso   1.000  O 
  O2       1.0000 0.45236  0.40757  0.63258  Biso   1.000  O 
  O3       1.0000 0.44795  0.06771  0.62817  Biso   1.000  O 
  O4       1.0000 0.94607  0.56955  0.12113  Biso   1.000  O 
  O5       1.0000 0.05264  0.93034  0.11659  Biso   1.000  O 
  O6       1.0000 0.94795  0.06912  0.87126  Biso   1.000  O 
  O7       1.0000 0.99992  0.74750  0.91389  Biso   1.000  O 
  O8       1.0000 0.95027  0.90949  0.12642  Biso   1.000  O 
  O9       1.0000 0.54909  0.09081  0.63103  Biso   1.000  O 
  O10      1.0000 0.45030  0.90680  0.37306  Biso   1.000  O 
  O11      1.0000 0.55444  0.42812  0.60932  Biso   1.000  O 
  O12      1.0000 0.04913  0.09242  0.86901  Biso   1.000  O 
  O13      1.0000 0.49990  0.74571  0.58563  Biso   1.000  O 
  O14      1.0000 0.99853  0.24777  0.08577  Biso   1.000  O 
  O15      1.0000 0.95243  0.40892  0.86649  Biso   1.000  O 
  O16      1.0000 0.55263  0.92744  0.38336  Biso   1.000  O 
  O17      1.0000 0.05460  0.42980  0.89071  Biso   1.000  O 
  O18      1.0000 0.49856  0.24518  0.41371  Biso   1.000  O 
  O19      1.0000 0.44610  0.56688  0.37770  Biso   1.000  O 
  O20      1.0000 0.04705  0.59300  0.13723  Biso   1.000  O 
