data_image0
_cell_length_a       27.9306
_cell_length_b       6.67308
_cell_length_c       7.04438
_cell_angle_alpha    94.5858
_cell_angle_beta     88.7919
_cell_angle_gamma    86.0646

_symmetry_space_group_name_H-M    "P 1"
_symmetry_int_tables_number       1

loop_
  _symmetry_equiv_pos_as_xyz
  'x, y, z'

loop_
  _atom_site_label
  _atom_site_occupancy
  _atom_site_fract_x
  _atom_site_fract_y
  _atom_site_fract_z
  _atom_site_thermal_displace_type
  _atom_site_B_iso_or_equiv
  _atom_site_type_symbol
  Al1      1.0000 0.99910  0.49533  0.00941  Biso   1.000  Al
  Al2      1.0000 0.49914  0.99684  0.50343  Biso   1.000  Al
  Al3      1.0000 0.99920  0.99493  0.00146  Biso   1.000  Al
  Al4      1.0000 0.49919  0.49656  0.49629  Biso   1.000  Al
  C1       1.0000 0.72253  0.74570  0.24558  Biso   1.000  C 
  C2       1.0000 0.64963  0.07697  0.77759  Biso   1.000  C 
  C3       1.0000 0.69928  0.07883  0.78852  Biso   1.000  C 
  C4       1.0000 0.62193  0.72075  0.25651  Biso   1.000  C 
  C5       1.0000 0.56952  0.71189  0.29790  Biso   1.000  C 
  C6       1.0000 0.22296  0.24513  0.75109  Biso   1.000  C 
  C7       1.0000 0.77508  0.75937  0.24963  Biso   1.000  C 
  C8       1.0000 0.79586  0.93380  0.19667  Biso   1.000  C 
  C9       1.0000 0.12238  0.21934  0.76452  Biso   1.000  C 
  C10      1.0000 0.06995  0.21030  0.80560  Biso   1.000  C 
  C11      1.0000 0.27566  0.75088  0.24947  Biso   1.000  C 
  C12      1.0000 0.84531  0.94595  0.19392  Biso   1.000  C 
  C13      1.0000 0.37616  0.28281  0.73902  Biso   1.000  C 
  C14      1.0000 0.19909  0.57973  0.29395  Biso   1.000  C 
  C15      1.0000 0.30549  0.57321  0.20679  Biso   1.000  C 
  C16      1.0000 0.35513  0.57411  0.21915  Biso   1.000  C 
  C17      1.0000 0.34549  0.44634  0.69348  Biso   1.000  C 
  C18      1.0000 0.92884  0.25265  0.81884  Biso   1.000  C 
  C19      1.0000 0.27554  0.25917  0.75277  Biso   1.000  C 
  C20      1.0000 0.80601  0.07145  0.70605  Biso   1.000  C 
  C21      1.0000 0.85562  0.07227  0.72044  Biso   1.000  C 
  C22      1.0000 0.77614  0.24926  0.74723  Biso   1.000  C 
  C23      1.0000 0.42850  0.75451  0.31548  Biso   1.000  C 
  C24      1.0000 0.87689  0.25202  0.77371  Biso   1.000  C 
  C25      1.0000 0.69528  0.41997  0.69523  Biso   1.000  C 
  C26      1.0000 0.29604  0.43369  0.69851  Biso   1.000  C 
  C27      1.0000 0.14943  0.57701  0.28450  Biso   1.000  C 
  C28      1.0000 0.37647  0.75388  0.27185  Biso   1.000  C 
  C29      1.0000 0.87572  0.78204  0.24048  Biso   1.000  C 
  C30      1.0000 0.42878  0.28456  0.69802  Biso   1.000  C 
  C31      1.0000 0.70212  0.55943  0.20903  Biso   1.000  C 
  C32      1.0000 0.64560  0.42040  0.68886  Biso   1.000  C 
  C33      1.0000 0.92841  0.78334  0.20119  Biso   1.000  C 
  C34      1.0000 0.72327  0.24871  0.74333  Biso   1.000  C 
  C35      1.0000 0.69126  0.92012  0.27958  Biso   1.000  C 
  C36      1.0000 0.62230  0.24740  0.72576  Biso   1.000  C 
  C37      1.0000 0.57017  0.24154  0.68540  Biso   1.000  C 
  C38      1.0000 0.22279  0.74999  0.24784  Biso   1.000  C 
  C39      1.0000 0.84764  0.43148  0.80703  Biso   1.000  C 
  C40      1.0000 0.79811  0.42964  0.79517  Biso   1.000  C 
  C41      1.0000 0.12185  0.74703  0.23322  Biso   1.000  C 
  C42      1.0000 0.34724  0.93326  0.30638  Biso   1.000  C 
  C43      1.0000 0.64181  0.90823  0.28276  Biso   1.000  C 
  C44      1.0000 0.29768  0.93128  0.29659  Biso   1.000  C 
  C45      1.0000 0.19164  0.41921  0.78687  Biso   1.000  C 
  C46      1.0000 0.14221  0.40691  0.79124  Biso   1.000  C 
  C47      1.0000 0.06972  0.74035  0.19317  Biso   1.000  C 
  C48      1.0000 0.85550  0.60954  0.29902  Biso   1.000  C 
  C49      1.0000 0.14488  0.92055  0.19587  Biso   1.000  C 
  C50      1.0000 0.19456  0.92100  0.20083  Biso   1.000  C 
  C51      1.0000 0.35621  0.11013  0.79860  Biso   1.000  C 
  C52      1.0000 0.65261  0.54643  0.21643  Biso   1.000  C 
  C53      1.0000 0.30663  0.09956  0.80715  Biso   1.000  C 
  C54      1.0000 0.20258  0.05875  0.71476  Biso   1.000  C 
  C55      1.0000 0.15309  0.04529  0.72340  Biso   1.000  C 
  C56      1.0000 0.80589  0.59951  0.30536  Biso   1.000  C 
  H1       1.0000 0.86117  0.07918  0.14801  Biso   1.000  H 
  H2       1.0000 0.86423  0.57036  0.84994  Biso   1.000  H 
  H3       1.0000 0.71988  0.94674  0.83324  Biso   1.000  H 
  H4       1.0000 0.63159  0.94294  0.80798  Biso   1.000  H 
  H5       1.0000 0.21992  0.44796  0.33801  Biso   1.000  H 
  H6       1.0000 0.13157  0.44264  0.31533  Biso   1.000  H 
  H7       1.0000 0.77592  0.56885  0.83108  Biso   1.000  H 
  H8       1.0000 0.63724  0.40101  0.19320  Biso   1.000  H 
  H9       1.0000 0.22600  0.92287  0.67897  Biso   1.000  H 
  H10      1.0000 0.12333  0.05155  0.15490  Biso   1.000  H 
  H11      1.0000 0.72551  0.42326  0.17435  Biso   1.000  H 
  H12      1.0000 0.36390  0.07216  0.34862  Biso   1.000  H 
  H13      1.0000 0.27552  0.07038  0.33356  Biso   1.000  H 
  H14      1.0000 0.13779  0.89973  0.69999  Biso   1.000  H 
  H15      1.0000 0.00132  0.71787  0.75134  Biso   1.000  H 
  H16      1.0000 0.77305  0.05876  0.15015  Biso   1.000  H 
  H17      1.0000 0.61781  0.04291  0.31402  Biso   1.000  H 
  H18      1.0000 0.36111  0.57969  0.64661  Biso   1.000  H 
  H19      1.0000 0.28957  0.43277  0.16274  Biso   1.000  H 
  H20      1.0000 0.87837  0.93320  0.69338  Biso   1.000  H 
  H21      1.0000 0.27299  0.55841  0.65291  Biso   1.000  H 
  H22      1.0000 0.29179  0.96518  0.85613  Biso   1.000  H 
  H23      1.0000 0.38007  0.98335  0.83466  Biso   1.000  H 
  H24      1.0000 0.79080  0.46529  0.35352  Biso   1.000  H 
  H25      1.0000 0.50069  0.22027  0.24590  Biso   1.000  H 
  H26      1.0000 0.50874  0.75895  0.74896  Biso   1.000  H 
  H27      1.0000 0.71276  0.55242  0.65605  Biso   1.000  H 
  H28      1.0000 0.87916  0.48254  0.33593  Biso   1.000  H 
  H29      1.0000 0.00805  0.25707  0.25496  Biso   1.000  H 
  H30      1.0000 0.21183  0.05377  0.16115  Biso   1.000  H 
  H31      1.0000 0.70586  0.06597  0.31179  Biso   1.000  H 
  H32      1.0000 0.20620  0.56512  0.81920  Biso   1.000  H 
  H33      1.0000 0.11817  0.54128  0.82355  Biso   1.000  H 
  H34      1.0000 0.37786  0.43509  0.19099  Biso   1.000  H 
  H35      1.0000 0.62428  0.55178  0.64734  Biso   1.000  H 
  H36      1.0000 0.79018  0.93092  0.66158  Biso   1.000  H 
  O1       1.0000 0.04436  0.37702  0.81598  Biso   1.000  O 
  O2       1.0000 0.44485  0.92566  0.35680  Biso   1.000  O 
  O3       1.0000 0.54393  0.87862  0.30857  Biso   1.000  O 
  O4       1.0000 0.94514  0.42377  0.86082  Biso   1.000  O 
  O5       1.0000 0.99969  0.25297  0.12204  Biso   1.000  O 
  O6       1.0000 0.49996  0.75461  0.61650  Biso   1.000  O 
  O7       1.0000 0.05446  0.04072  0.83888  Biso   1.000  O 
  O8       1.0000 0.54602  0.40948  0.67519  Biso   1.000  O 
  O9       1.0000 0.45264  0.58521  0.31833  Biso   1.000  O 
  O10      1.0000 0.55380  0.06843  0.65335  Biso   1.000  O 
  O11      1.0000 0.99965  0.73421  0.88918  Biso   1.000  O 
  O12      1.0000 0.55405  0.54239  0.33148  Biso   1.000  O 
  O13      1.0000 0.44486  0.45044  0.65783  Biso   1.000  O 
  O14      1.0000 0.45388  0.11688  0.69526  Biso   1.000  O 
  O15      1.0000 0.94460  0.94902  0.16117  Biso   1.000  O 
  O16      1.0000 0.04547  0.90793  0.18248  Biso   1.000  O 
  O17      1.0000 0.95345  0.61558  0.19930  Biso   1.000  O 
  O18      1.0000 0.95298  0.08335  0.82204  Biso   1.000  O 
  O19      1.0000 0.49935  0.23610  0.38377  Biso   1.000  O 
  O20      1.0000 0.05346  0.56700  0.16140  Biso   1.000  O 
