data_image0
_cell_length_a       24.6822
_cell_length_b       6.6446
_cell_length_c       16.8168
_cell_angle_alpha    90.0236
_cell_angle_beta     89.9991
_cell_angle_gamma    90.3575

_symmetry_space_group_name_H-M    "P 1"
_symmetry_int_tables_number       1

loop_
  _symmetry_equiv_pos_as_xyz
  'x, y, z'

loop_
  _atom_site_label
  _atom_site_occupancy
  _atom_site_fract_x
  _atom_site_fract_y
  _atom_site_fract_z
  _atom_site_thermal_displace_type
  _atom_site_B_iso_or_equiv
  _atom_site_type_symbol
  Al1      1.0000 0.00086  0.49650  0.00196  Biso   1.000  Al
  Al2      1.0000 0.50087  0.99743  0.50161  Biso   1.000  Al
  Al3      1.0000 0.00090  0.99653  0.99858  Biso   1.000  Al
  Al4      1.0000 0.50083  0.49750  0.49892  Biso   1.000  Al
  C1       1.0000 0.72383  0.75251  0.27183  Biso   1.000  C 
  C2       1.0000 0.64523  0.07585  0.67586  Biso   1.000  C 
  C3       1.0000 0.69290  0.07684  0.71989  Biso   1.000  C 
  C4       1.0000 0.62675  0.75232  0.36050  Biso   1.000  C 
  C5       1.0000 0.57624  0.75137  0.40903  Biso   1.000  C 
  C6       1.0000 0.22475  0.25105  0.77367  Biso   1.000  C 
  C7       1.0000 0.77498  0.75158  0.22627  Biso   1.000  C 
  C8       1.0000 0.79364  0.92509  0.18646  Biso   1.000  C 
  C9       1.0000 0.12758  0.25172  0.86216  Biso   1.000  C 
  C10      1.0000 0.07685  0.25138  0.91020  Biso   1.000  C 
  C11      1.0000 0.27482  0.74993  0.27458  Biso   1.000  C 
  C12      1.0000 0.84220  0.92437  0.14450  Biso   1.000  C 
  C13      1.0000 0.37364  0.24811  0.64054  Biso   1.000  C 
  C14      1.0000 0.19186  0.57546  0.22138  Biso   1.000  C 
  C15      1.0000 0.30640  0.57460  0.27988  Biso   1.000  C 
  C16      1.0000 0.35434  0.57277  0.32323  Biso   1.000  C 
  C17      1.0000 0.34292  0.42437  0.64633  Biso   1.000  C 
  C18      1.0000 0.92484  0.24522  0.90691  Biso   1.000  C 
  C19      1.0000 0.27577  0.25019  0.72778  Biso   1.000  C 
  C20      1.0000 0.80736  0.07577  0.77774  Biso   1.000  C 
  C21      1.0000 0.85518  0.07320  0.82134  Biso   1.000  C 
  C22      1.0000 0.77597  0.25155  0.77229  Biso   1.000  C 
  C23      1.0000 0.42422  0.74639  0.40803  Biso   1.000  C 
  C24      1.0000 0.87381  0.24803  0.85952  Biso   1.000  C 
  C25      1.0000 0.70671  0.42825  0.68850  Biso   1.000  C 
  C26      1.0000 0.29451  0.42459  0.68863  Biso   1.000  C 
  C27      1.0000 0.14435  0.57512  0.17698  Biso   1.000  C 
  C28      1.0000 0.37290  0.74789  0.36129  Biso   1.000  C 
  C29      1.0000 0.87309  0.74832  0.13966  Biso   1.000  C 
  C30      1.0000 0.42481  0.24654  0.59347  Biso   1.000  C 
  C31      1.0000 0.69209  0.57653  0.27915  Biso   1.000  C 
  C32      1.0000 0.65853  0.42892  0.64563  Biso   1.000  C 
  C33      1.0000 0.92430  0.74550  0.09269  Biso   1.000  C 
  C34      1.0000 0.72483  0.25249  0.72671  Biso   1.000  C 
  C35      1.0000 0.70559  0.92865  0.30966  Biso   1.000  C 
  C36      1.0000 0.62752  0.25228  0.63857  Biso   1.000  C 
  C37      1.0000 0.57683  0.25139  0.59046  Biso   1.000  C 
  C38      1.0000 0.22380  0.75092  0.22870  Biso   1.000  C 
  C39      1.0000 0.84325  0.42470  0.85390  Biso   1.000  C 
  C40      1.0000 0.79484  0.42561  0.81160  Biso   1.000  C 
  C41      1.0000 0.12685  0.75189  0.13971  Biso   1.000  C 
  C42      1.0000 0.34201  0.92383  0.35612  Biso   1.000  C 
  C43      1.0000 0.65754  0.92930  0.35283  Biso   1.000  C 
  C44      1.0000 0.29348  0.92398  0.31410  Biso   1.000  C 
  C45      1.0000 0.20696  0.42665  0.81240  Biso   1.000  C 
  C46      1.0000 0.15887  0.42776  0.85547  Biso   1.000  C 
  C47      1.0000 0.07632  0.75147  0.09123  Biso   1.000  C 
  C48      1.0000 0.85461  0.57395  0.17825  Biso   1.000  C 
  C49      1.0000 0.15791  0.92828  0.14720  Biso   1.000  C 
  C50      1.0000 0.20588  0.92704  0.19055  Biso   1.000  C 
  C51      1.0000 0.35504  0.07275  0.67831  Biso   1.000  C 
  C52      1.0000 0.64453  0.57558  0.32344  Biso   1.000  C 
  C53      1.0000 0.30719  0.07456  0.72188  Biso   1.000  C 
  C54      1.0000 0.19264  0.07586  0.78030  Biso   1.000  C 
  C55      1.0000 0.14501  0.07536  0.82446  Biso   1.000  C 
  C56      1.0000 0.80667  0.57639  0.22156  Biso   1.000  C 
  H1       1.0000 0.85626  0.05891  0.11346  Biso   1.000  H 
  H2       1.0000 0.85746  0.55957  0.88459  Biso   1.000  H 
  H3       1.0000 0.70521  0.94025  0.75078  Biso   1.000  H 
  H4       1.0000 0.62078  0.93941  0.67024  Biso   1.000  H 
  H5       1.0000 0.20401  0.43846  0.25211  Biso   1.000  H 
  H6       1.0000 0.11982  0.43896  0.17106  Biso   1.000  H 
  H7       1.0000 0.77055  0.56211  0.81042  Biso   1.000  H 
  H8       1.0000 0.62020  0.43896  0.32945  Biso   1.000  H 
  H9       1.0000 0.20471  0.93928  0.74915  Biso   1.000  H 
  H10      1.0000 0.14423  0.06447  0.11741  Biso   1.000  H 
  H11      1.0000 0.70446  0.43958  0.24852  Biso   1.000  H 
  H12      1.0000 0.35610  0.05877  0.38688  Biso   1.000  H 
  H13      1.0000 0.26899  0.06001  0.31317  Biso   1.000  H 
  H14      1.0000 0.12036  0.93935  0.82983  Biso   1.000  H 
  H15      1.0000 0.97973  0.74036  0.90155  Biso   1.000  H 
  H16      1.0000 0.76912  0.06106  0.18702  Biso   1.000  H 
  H17      1.0000 0.64359  0.06547  0.38240  Biso   1.000  H 
  H18      1.0000 0.35708  0.55953  0.61584  Biso   1.000  H 
  H19      1.0000 0.29367  0.43908  0.24820  Biso   1.000  H 
  H20      1.0000 0.87909  0.93633  0.82558  Biso   1.000  H 
  H21      1.0000 0.27014  0.56089  0.69002  Biso   1.000  H 
  H22      1.0000 0.29439  0.93876  0.75326  Biso   1.000  H 
  H23      1.0000 0.37901  0.93605  0.67382  Biso   1.000  H 
  H24      1.0000 0.79400  0.44149  0.25364  Biso   1.000  H 
  H25      1.0000 0.48001  0.24252  0.40124  Biso   1.000  H 
  H26      1.0000 0.48103  0.74283  0.59981  Biso   1.000  H 
  H27      1.0000 0.73141  0.56483  0.69095  Biso   1.000  H 
  H28      1.0000 0.87875  0.43754  0.17462  Biso   1.000  H 
  H29      1.0000 0.97883  0.24036  0.09849  Biso   1.000  H 
  H30      1.0000 0.23062  0.06343  0.19335  Biso   1.000  H 
  H31      1.0000 0.73013  0.06549  0.30676  Biso   1.000  H 
  H32      1.0000 0.23186  0.56272  0.81018  Biso   1.000  H 
  H33      1.0000 0.14527  0.56355  0.88567  Biso   1.000  H 
  H34      1.0000 0.37843  0.43624  0.32727  Biso   1.000  H 
  H35      1.0000 0.64464  0.56478  0.61581  Biso   1.000  H 
  H36      1.0000 0.79455  0.94042  0.74604  Biso   1.000  H 
  O1       1.0000 0.05915  0.42076  0.93371  Biso   1.000  O 
  O2       1.0000 0.44464  0.91664  0.42702  Biso   1.000  O 
  O3       1.0000 0.55799  0.92087  0.43147  Biso   1.000  O 
  O4       1.0000 0.94566  0.41495  0.92571  Biso   1.000  O 
  O5       1.0000 0.99899  0.24494  0.04907  Biso   1.000  O 
  O6       1.0000 0.49946  0.74615  0.54897  Biso   1.000  O 
  O7       1.0000 0.05475  0.08145  0.92443  Biso   1.000  O 
  O8       1.0000 0.55847  0.42084  0.56820  Biso   1.000  O 
  O9       1.0000 0.44379  0.57491  0.42580  Biso   1.000  O 
  O10      1.0000 0.55548  0.08091  0.57492  Biso   1.000  O 
  O11      1.0000 0.99932  0.74484  0.95145  Biso   1.000  O 
  O12      1.0000 0.55493  0.58092  0.42473  Biso   1.000  O 
  O13      1.0000 0.44514  0.41678  0.57431  Biso   1.000  O 
  O14      1.0000 0.44437  0.07507  0.57559  Biso   1.000  O 
  O15      1.0000 0.94523  0.91520  0.07413  Biso   1.000  O 
  O16      1.0000 0.05872  0.92081  0.06759  Biso   1.000  O 
  O17      1.0000 0.94326  0.57345  0.07426  Biso   1.000  O 
  O18      1.0000 0.94375  0.07320  0.92545  Biso   1.000  O 
  O19      1.0000 0.49910  0.24609  0.45157  Biso   1.000  O 
  O20      1.0000 0.05429  0.58150  0.07680  Biso   1.000  O 
