data_image0
_cell_length_a       27.8972
_cell_length_b       6.66328
_cell_length_c       6.93191
_cell_angle_alpha    95.7112
_cell_angle_beta     88.1433
_cell_angle_gamma    84.8344

_symmetry_space_group_name_H-M    "P 1"
_symmetry_int_tables_number       1

loop_
  _symmetry_equiv_pos_as_xyz
  'x, y, z'

loop_
  _atom_site_label
  _atom_site_occupancy
  _atom_site_fract_x
  _atom_site_fract_y
  _atom_site_fract_z
  _atom_site_thermal_displace_type
  _atom_site_B_iso_or_equiv
  _atom_site_type_symbol
  Al1      1.0000 0.99898  0.49661  0.01022  Biso   1.000  Al
  Al2      1.0000 0.49903  0.99663  0.50568  Biso   1.000  Al
  Al3      1.0000 0.99920  0.99621  0.00217  Biso   1.000  Al
  Al4      1.0000 0.49926  0.49618  0.49786  Biso   1.000  Al
  C1       1.0000 0.72241  0.74347  0.24354  Biso   1.000  C 
  C2       1.0000 0.65080  0.07359  0.77525  Biso   1.000  C 
  C3       1.0000 0.70046  0.07652  0.78544  Biso   1.000  C 
  C4       1.0000 0.62208  0.71118  0.25090  Biso   1.000  C 
  C5       1.0000 0.56960  0.70100  0.29269  Biso   1.000  C 
  C6       1.0000 0.22295  0.24429  0.74967  Biso   1.000  C 
  C7       1.0000 0.77476  0.76123  0.24984  Biso   1.000  C 
  C8       1.0000 0.79423  0.93625  0.19585  Biso   1.000  C 
  C9       1.0000 0.12261  0.21164  0.75881  Biso   1.000  C 
  C10      1.0000 0.07009  0.20125  0.79990  Biso   1.000  C 
  C11      1.0000 0.27572  0.75027  0.24952  Biso   1.000  C 
  C12      1.0000 0.84354  0.95217  0.19470  Biso   1.000  C 
  C13      1.0000 0.37577  0.29171  0.74481  Biso   1.000  C 
  C14      1.0000 0.19989  0.57796  0.29272  Biso   1.000  C 
  C15      1.0000 0.30681  0.57126  0.20866  Biso   1.000  C 
  C16      1.0000 0.35641  0.57356  0.22196  Biso   1.000  C 
  C17      1.0000 0.34403  0.45288  0.69694  Biso   1.000  C 
  C18      1.0000 0.92881  0.25726  0.82000  Biso   1.000  C 
  C19      1.0000 0.27533  0.26209  0.75423  Biso   1.000  C 
  C20      1.0000 0.80755  0.07050  0.70495  Biso   1.000  C 
  C21      1.0000 0.85709  0.07315  0.72019  Biso   1.000  C 
  C22      1.0000 0.77634  0.24925  0.74540  Biso   1.000  C 
  C23      1.0000 0.42840  0.75749  0.31845  Biso   1.000  C 
  C24      1.0000 0.87701  0.25545  0.77377  Biso   1.000  C 
  C25      1.0000 0.69443  0.41805  0.69433  Biso   1.000  C 
  C26      1.0000 0.29470  0.43721  0.69988  Biso   1.000  C 
  C27      1.0000 0.15022  0.57474  0.28331  Biso   1.000  C 
  C28      1.0000 0.37649  0.75585  0.27396  Biso   1.000  C 
  C29      1.0000 0.87515  0.79132  0.24411  Biso   1.000  C 
  C30      1.0000 0.42855  0.29465  0.70503  Biso   1.000  C 
  C31      1.0000 0.70392  0.55361  0.20954  Biso   1.000  C 
  C32      1.0000 0.64471  0.41755  0.68898  Biso   1.000  C 
  C33      1.0000 0.92799  0.79462  0.20645  Biso   1.000  C 
  C34      1.0000 0.72347  0.24723  0.74117  Biso   1.000  C 
  C35      1.0000 0.68938  0.91737  0.27262  Biso   1.000  C 
  C36      1.0000 0.62243  0.24385  0.72532  Biso   1.000  C 
  C37      1.0000 0.57028  0.23769  0.68635  Biso   1.000  C 
  C38      1.0000 0.22281  0.74846  0.24719  Biso   1.000  C 
  C39      1.0000 0.84645  0.43568  0.80648  Biso   1.000  C 
  C40      1.0000 0.79696  0.43206  0.79359  Biso   1.000  C 
  C41      1.0000 0.12178  0.74471  0.23303  Biso   1.000  C 
  C42      1.0000 0.34603  0.93632  0.30695  Biso   1.000  C 
  C43      1.0000 0.64010  0.90176  0.27386  Biso   1.000  C 
  C44      1.0000 0.29649  0.93307  0.29598  Biso   1.000  C 
  C45      1.0000 0.18990  0.41805  0.78043  Biso   1.000  C 
  C46      1.0000 0.14062  0.40225  0.78251  Biso   1.000  C 
  C47      1.0000 0.06969  0.73809  0.19349  Biso   1.000  C 
  C48      1.0000 0.85619  0.61831  0.30368  Biso   1.000  C 
  C49      1.0000 0.14397  0.91846  0.19612  Biso   1.000  C 
  C50      1.0000 0.19369  0.91915  0.20064  Biso   1.000  C 
  C51      1.0000 0.35692  0.11867  0.80493  Biso   1.000  C 
  C52      1.0000 0.65454  0.53702  0.21532  Biso   1.000  C 
  C53      1.0000 0.30743  0.10524  0.81136  Biso   1.000  C 
  C54      1.0000 0.20446  0.05444  0.71543  Biso   1.000  C 
  C55      1.0000 0.15508  0.03765  0.72205  Biso   1.000  C 
  C56      1.0000 0.80670  0.60460  0.30830  Biso   1.000  C 
  H1       1.0000 0.85839  0.08582  0.14793  Biso   1.000  H 
  H2       1.0000 0.86192  0.57675  0.84981  Biso   1.000  H 
  H3       1.0000 0.72183  0.94469  0.82910  Biso   1.000  H 
  H4       1.0000 0.63354  0.93892  0.80498  Biso   1.000  H 
  H5       1.0000 0.22135  0.44637  0.33641  Biso   1.000  H 
  H6       1.0000 0.13305  0.44006  0.31372  Biso   1.000  H 
  H7       1.0000 0.77370  0.57210  0.82924  Biso   1.000  H 
  H8       1.0000 0.64068  0.38899  0.19432  Biso   1.000  H 
  H9       1.0000 0.22931  0.91846  0.68306  Biso   1.000  H 
  H10      1.0000 0.12177  0.04935  0.15580  Biso   1.000  H 
  H11      1.0000 0.72876  0.41742  0.17846  Biso   1.000  H 
  H12      1.0000 0.36166  0.07735  0.34888  Biso   1.000  H 
  H13      1.0000 0.27334  0.07339  0.33170  Biso   1.000  H 
  H14      1.0000 0.14125  0.88959  0.70051  Biso   1.000  H 
  H15      1.0000 0.00189  0.71344  0.74673  Biso   1.000  H 
  H16      1.0000 0.77056  0.05867  0.14718  Biso   1.000  H 
  H17      1.0000 0.61470  0.03631  0.30145  Biso   1.000  H 
  H18      1.0000 0.35879  0.58655  0.64976  Biso   1.000  H 
  H19      1.0000 0.29198  0.42855  0.16529  Biso   1.000  H 
  H20      1.0000 0.88089  0.93350  0.69391  Biso   1.000  H 
  H21      1.0000 0.27090  0.55988  0.65226  Biso   1.000  H 
  H22      1.0000 0.29346  0.97065  0.86077  Biso   1.000  H 
  H23      1.0000 0.38163  0.99370  0.84262  Biso   1.000  H 
  H24      1.0000 0.79264  0.46997  0.35717  Biso   1.000  H 
  H25      1.0000 0.50187  0.21367  0.24245  Biso   1.000  H 
  H26      1.0000 0.50976  0.76231  0.75448  Biso   1.000  H 
  H27      1.0000 0.71112  0.55105  0.65556  Biso   1.000  H 
  H28      1.0000 0.88082  0.49357  0.34239  Biso   1.000  H 
  H29      1.0000 0.00919  0.26210  0.25929  Biso   1.000  H 
  H30      1.0000 0.21029  0.05209  0.16125  Biso   1.000  H 
  H31      1.0000 0.70241  0.06617  0.30300  Biso   1.000  H 
  H32      1.0000 0.20292  0.56685  0.81108  Biso   1.000  H 
  H33      1.0000 0.11521  0.53665  0.81114  Biso   1.000  H 
  H34      1.0000 0.38013  0.43370  0.19545  Biso   1.000  H 
  H35      1.0000 0.62259  0.54874  0.64878  Biso   1.000  H 
  H36      1.0000 0.79286  0.92778  0.66021  Biso   1.000  H 
  O1       1.0000 0.04308  0.36737  0.80727  Biso   1.000  O 
  O2       1.0000 0.44360  0.92966  0.36459  Biso   1.000  O 
  O3       1.0000 0.54261  0.86723  0.30072  Biso   1.000  O 
  O4       1.0000 0.94390  0.42950  0.86696  Biso   1.000  O 
  O5       1.0000 0.99972  0.25655  0.12580  Biso   1.000  O 
  O6       1.0000 0.50012  0.75651  0.62121  Biso   1.000  O 
  O7       1.0000 0.05572  0.03230  0.83720  Biso   1.000  O 
  O8       1.0000 0.54516  0.40651  0.68035  Biso   1.000  O 
  O9       1.0000 0.45365  0.58759  0.31702  Biso   1.000  O 
  O10      1.0000 0.55483  0.06376  0.65089  Biso   1.000  O 
  O11      1.0000 0.99974  0.73298  0.88714  Biso   1.000  O 
  O12      1.0000 0.55526  0.53210  0.33037  Biso   1.000  O 
  O13      1.0000 0.44371  0.45948  0.66121  Biso   1.000  O 
  O14      1.0000 0.45499  0.12781  0.70625  Biso   1.000  O 
  O15      1.0000 0.94317  0.95949  0.16287  Biso   1.000  O 
  O16      1.0000 0.04452  0.90667  0.18672  Biso   1.000  O 
  O17      1.0000 0.95446  0.62809  0.20907  Biso   1.000  O 
  O18      1.0000 0.95409  0.08747  0.81913  Biso   1.000  O 
  O19      1.0000 0.49948  0.23309  0.38284  Biso   1.000  O 
  O20      1.0000 0.05434  0.56398  0.15803  Biso   1.000  O 
