data_image0
_cell_length_a       24.1007
_cell_length_b       6.64397
_cell_length_c       17.7049
_cell_angle_alpha    90.0198
_cell_angle_beta     90.0019
_cell_angle_gamma    90.5377

_symmetry_space_group_name_H-M    "P 1"
_symmetry_int_tables_number       1

loop_
  _symmetry_equiv_pos_as_xyz
  'x, y, z'

loop_
  _atom_site_label
  _atom_site_occupancy
  _atom_site_fract_x
  _atom_site_fract_y
  _atom_site_fract_z
  _atom_site_thermal_displace_type
  _atom_site_B_iso_or_equiv
  _atom_site_type_symbol
  Al1      1.0000 0.00076  0.49435  0.00178  Biso   1.000  Al
  Al2      1.0000 0.50084  0.99863  0.50152  Biso   1.000  Al
  Al3      1.0000 0.00082  0.99429  0.99839  Biso   1.000  Al
  Al4      1.0000 0.50087  0.49865  0.49889  Biso   1.000  Al
  C1       1.0000 0.72432  0.75341  0.27334  Biso   1.000  C 
  C2       1.0000 0.64517  0.07785  0.67182  Biso   1.000  C 
  C3       1.0000 0.69248  0.07799  0.71672  Biso   1.000  C 
  C4       1.0000 0.62789  0.75464  0.36386  Biso   1.000  C 
  C5       1.0000 0.57752  0.75409  0.41265  Biso   1.000  C 
  C6       1.0000 0.22503  0.25232  0.77463  Biso   1.000  C 
  C7       1.0000 0.77508  0.75152  0.22661  Biso   1.000  C 
  C8       1.0000 0.79320  0.92452  0.18744  Biso   1.000  C 
  C9       1.0000 0.12845  0.25198  0.86478  Biso   1.000  C 
  C10      1.0000 0.07791  0.25102  0.91323  Biso   1.000  C 
  C11      1.0000 0.27461  0.74959  0.27444  Biso   1.000  C 
  C12      1.0000 0.84132  0.92254  0.14409  Biso   1.000  C 
  C13      1.0000 0.37278  0.24841  0.63819  Biso   1.000  C 
  C14      1.0000 0.19128  0.57521  0.21868  Biso   1.000  C 
  C15      1.0000 0.30650  0.57413  0.28184  Biso   1.000  C 
  C16      1.0000 0.35405  0.57233  0.32626  Biso   1.000  C 
  C17      1.0000 0.34172  0.42477  0.64558  Biso   1.000  C 
  C18      1.0000 0.92363  0.24183  0.91015  Biso   1.000  C 
  C19      1.0000 0.27573  0.25151  0.72778  Biso   1.000  C 
  C20      1.0000 0.80752  0.07544  0.77933  Biso   1.000  C 
  C21      1.0000 0.85489  0.07156  0.82407  Biso   1.000  C 
  C22      1.0000 0.77581  0.25153  0.77252  Biso   1.000  C 
  C23      1.0000 0.42305  0.74600  0.41097  Biso   1.000  C 
  C24      1.0000 0.87284  0.24545  0.86212  Biso   1.000  C 
  C25      1.0000 0.70790  0.43001  0.68877  Biso   1.000  C 
  C26      1.0000 0.29369  0.42556  0.68913  Biso   1.000  C 
  C27      1.0000 0.14414  0.57481  0.17342  Biso   1.000  C 
  C28      1.0000 0.37197  0.74760  0.36344  Biso   1.000  C 
  C29      1.0000 0.87227  0.74573  0.13726  Biso   1.000  C 
  C30      1.0000 0.42360  0.24624  0.59018  Biso   1.000  C 
  C31      1.0000 0.69182  0.57778  0.28254  Biso   1.000  C 
  C32      1.0000 0.66005  0.43144  0.64486  Biso   1.000  C 
  C33      1.0000 0.92314  0.74211  0.08936  Biso   1.000  C 
  C34      1.0000 0.72505  0.25354  0.72579  Biso   1.000  C 
  C35      1.0000 0.70715  0.92992  0.31031  Biso   1.000  C 
  C36      1.0000 0.62841  0.25493  0.63569  Biso   1.000  C 
  C37      1.0000 0.57790  0.25438  0.58717  Biso   1.000  C 
  C38      1.0000 0.22397  0.75054  0.22748  Biso   1.000  C 
  C39      1.0000 0.84198  0.42243  0.85519  Biso   1.000  C 
  C40      1.0000 0.79394  0.42458  0.81169  Biso   1.000  C 
  C41      1.0000 0.12773  0.75139  0.13661  Biso   1.000  C 
  C42      1.0000 0.34081  0.92375  0.35617  Biso   1.000  C 
  C43      1.0000 0.65944  0.93125  0.35449  Biso   1.000  C 
  C44      1.0000 0.29261  0.92386  0.31297  Biso   1.000  C 
  C45      1.0000 0.20798  0.42799  0.81227  Biso   1.000  C 
  C46      1.0000 0.16018  0.42851  0.85627  Biso   1.000  C 
  C47      1.0000 0.07741  0.75089  0.08773  Biso   1.000  C 
  C48      1.0000 0.85436  0.57191  0.17534  Biso   1.000  C 
  C49      1.0000 0.15954  0.92761  0.14548  Biso   1.000  C 
  C50      1.0000 0.20717  0.92640  0.18980  Biso   1.000  C 
  C51      1.0000 0.35496  0.07352  0.67566  Biso   1.000  C 
  C52      1.0000 0.64460  0.57756  0.32762  Biso   1.000  C 
  C53      1.0000 0.30755  0.07582  0.72034  Biso   1.000  C 
  C54      1.0000 0.19244  0.07667  0.78309  Biso   1.000  C 
  C55      1.0000 0.14512  0.07569  0.82798  Biso   1.000  C 
  C56      1.0000 0.80691  0.57564  0.21992  Biso   1.000  C 
  H1       1.0000 0.85492  0.05673  0.11362  Biso   1.000  H 
  H2       1.0000 0.85559  0.55661  0.88570  Biso   1.000  H 
  H3       1.0000 0.70390  0.94080  0.74649  Biso   1.000  H 
  H4       1.0000 0.62017  0.94163  0.66461  Biso   1.000  H 
  H5       1.0000 0.20244  0.43848  0.24895  Biso   1.000  H 
  H6       1.0000 0.11905  0.43868  0.16641  Biso   1.000  H 
  H7       1.0000 0.76934  0.56137  0.80927  Biso   1.000  H 
  H8       1.0000 0.61964  0.44127  0.33492  Biso   1.000  H 
  H9       1.0000 0.20381  0.94012  0.75284  Biso   1.000  H 
  H10      1.0000 0.14674  0.06363  0.11609  Biso   1.000  H 
  H11      1.0000 0.70324  0.44055  0.25278  Biso   1.000  H 
  H12      1.0000 0.35434  0.05897  0.38609  Biso   1.000  H 
  H13      1.0000 0.26776  0.06001  0.31023  Biso   1.000  H 
  H14      1.0000 0.12007  0.93945  0.83468  Biso   1.000  H 
  H15      1.0000 0.97999  0.73766  0.90584  Biso   1.000  H 
  H16      1.0000 0.76851  0.06113  0.18967  Biso   1.000  H 
  H17      1.0000 0.64638  0.06778  0.38338  Biso   1.000  H 
  H18      1.0000 0.35521  0.55961  0.61544  Biso   1.000  H 
  H19      1.0000 0.29442  0.43856  0.25099  Biso   1.000  H 
  H20      1.0000 0.87901  0.93436  0.82931  Biso   1.000  H 
  H21      1.0000 0.26896  0.56199  0.69201  Biso   1.000  H 
  H22      1.0000 0.29545  0.94037  0.75123  Biso   1.000  H 
  H23      1.0000 0.37921  0.93676  0.66999  Biso   1.000  H 
  H24      1.0000 0.79479  0.44114  0.25136  Biso   1.000  H 
  H25      1.0000 0.47832  0.24321  0.40698  Biso   1.000  H 
  H26      1.0000 0.47891  0.74321  0.59372  Biso   1.000  H 
  H27      1.0000 0.73317  0.56659  0.69313  Biso   1.000  H 
  H28      1.0000 0.87857  0.43487  0.17026  Biso   1.000  H 
  H29      1.0000 0.97945  0.23756  0.09408  Biso   1.000  H 
  H30      1.0000 0.23255  0.06269  0.19398  Biso   1.000  H 
  H31      1.0000 0.73231  0.06668  0.30575  Biso   1.000  H 
  H32      1.0000 0.23327  0.56462  0.80834  Biso   1.000  H 
  H33      1.0000 0.14713  0.56427  0.88565  Biso   1.000  H 
  H34      1.0000 0.37836  0.43569  0.33182  Biso   1.000  H 
  H35      1.0000 0.64691  0.56796  0.61609  Biso   1.000  H 
  H36      1.0000 0.79537  0.94097  0.74785  Biso   1.000  H 
  O1       1.0000 0.06078  0.41999  0.93723  Biso   1.000  O 
  O2       1.0000 0.44392  0.91627  0.42947  Biso   1.000  O 
  O3       1.0000 0.55989  0.92340  0.43562  Biso   1.000  O 
  O4       1.0000 0.94495  0.41142  0.92854  Biso   1.000  O 
  O5       1.0000 0.99904  0.24264  0.04633  Biso   1.000  O 
  O6       1.0000 0.49913  0.74720  0.54643  Biso   1.000  O 
  O7       1.0000 0.05526  0.08096  0.92705  Biso   1.000  O 
  O8       1.0000 0.56030  0.42369  0.56421  Biso   1.000  O 
  O9       1.0000 0.44204  0.57437  0.42959  Biso   1.000  O 
  O10      1.0000 0.55581  0.08410  0.57222  Biso   1.000  O 
  O11      1.0000 0.99930  0.74259  0.95381  Biso   1.000  O 
  O12      1.0000 0.55555  0.58376  0.42779  Biso   1.000  O 
  O13      1.0000 0.44448  0.41635  0.57153  Biso   1.000  O 
  O14      1.0000 0.44238  0.07448  0.57133  Biso   1.000  O 
  O15      1.0000 0.94455  0.91164  0.07112  Biso   1.000  O 
  O16      1.0000 0.06048  0.91995  0.06359  Biso   1.000  O 
  O17      1.0000 0.94143  0.56986  0.07019  Biso   1.000  O 
  O18      1.0000 0.94195  0.06964  0.92930  Biso   1.000  O 
  O19      1.0000 0.49891  0.24710  0.45396  Biso   1.000  O 
  O20      1.0000 0.05474  0.58099  0.07370  Biso   1.000  O 
