data_image0
_cell_length_a       25.5057
_cell_length_b       6.647
_cell_length_c       15.3739
_cell_angle_alpha    90.0067
_cell_angle_beta     89.9945
_cell_angle_gamma    90.5044

_symmetry_space_group_name_H-M    "P 1"
_symmetry_int_tables_number       1

loop_
  _symmetry_equiv_pos_as_xyz
  'x, y, z'

loop_
  _atom_site_label
  _atom_site_occupancy
  _atom_site_fract_x
  _atom_site_fract_y
  _atom_site_fract_z
  _atom_site_thermal_displace_type
  _atom_site_B_iso_or_equiv
  _atom_site_type_symbol
  Al1      1.0000 0.00064  0.49666  0.00219  Biso   1.000  Al
  Al2      1.0000 0.50058  0.99806  0.50206  Biso   1.000  Al
  Al3      1.0000 0.00059  0.99669  0.99824  Biso   1.000  Al
  Al4      1.0000 0.50063  0.49810  0.49865  Biso   1.000  Al
  C1       1.0000 0.72335  0.75204  0.27019  Biso   1.000  C 
  C2       1.0000 0.64523  0.07677  0.68121  Biso   1.000  C 
  C3       1.0000 0.69356  0.07700  0.72303  Biso   1.000  C 
  C4       1.0000 0.62515  0.75351  0.35474  Biso   1.000  C 
  C5       1.0000 0.57432  0.75297  0.40250  Biso   1.000  C 
  C6       1.0000 0.22472  0.25026  0.77368  Biso   1.000  C 
  C7       1.0000 0.77505  0.75055  0.22701  Biso   1.000  C 
  C8       1.0000 0.79528  0.92424  0.18612  Biso   1.000  C 
  C9       1.0000 0.12635  0.25187  0.85764  Biso   1.000  C 
  C10      1.0000 0.07517  0.25192  0.90436  Biso   1.000  C 
  C11      1.0000 0.27498  0.74979  0.27381  Biso   1.000  C 
  C12      1.0000 0.84425  0.92351  0.14634  Biso   1.000  C 
  C13      1.0000 0.37512  0.24820  0.64712  Biso   1.000  C 
  C14      1.0000 0.19183  0.57616  0.22692  Biso   1.000  C 
  C15      1.0000 0.30545  0.57414  0.27615  Biso   1.000  C 
  C16      1.0000 0.35386  0.57233  0.31764  Biso   1.000  C 
  C17      1.0000 0.34521  0.42415  0.64947  Biso   1.000  C 
  C18      1.0000 0.92638  0.24498  0.90002  Biso   1.000  C 
  C19      1.0000 0.27634  0.24953  0.73020  Biso   1.000  C 
  C20      1.0000 0.80721  0.07595  0.77137  Biso   1.000  C 
  C21      1.0000 0.85549  0.07354  0.81323  Biso   1.000  C 
  C22      1.0000 0.77661  0.25131  0.76969  Biso   1.000  C 
  C23      1.0000 0.42543  0.74594  0.40216  Biso   1.000  C 
  C24      1.0000 0.87527  0.24805  0.85311  Biso   1.000  C 
  C25      1.0000 0.70569  0.42830  0.68722  Biso   1.000  C 
  C26      1.0000 0.29637  0.42397  0.68965  Biso   1.000  C 
  C27      1.0000 0.14369  0.57607  0.18447  Biso   1.000  C 
  C28      1.0000 0.37387  0.74768  0.35653  Biso   1.000  C 
  C29      1.0000 0.87408  0.74731  0.14471  Biso   1.000  C 
  C30      1.0000 0.42637  0.24627  0.60055  Biso   1.000  C 
  C31      1.0000 0.69193  0.57687  0.27388  Biso   1.000  C 
  C32      1.0000 0.65699  0.42963  0.64662  Biso   1.000  C 
  C33      1.0000 0.92556  0.74463  0.09882  Biso   1.000  C 
  C34      1.0000 0.72492  0.25232  0.72647  Biso   1.000  C 
  C35      1.0000 0.70421  0.92829  0.30939  Biso   1.000  C 
  C36      1.0000 0.62642  0.25349  0.64295  Biso   1.000  C 
  C37      1.0000 0.57525  0.25297  0.59623  Biso   1.000  C 
  C38      1.0000 0.22340  0.75097  0.23021  Biso   1.000  C 
  C39      1.0000 0.84550  0.42438  0.85099  Biso   1.000  C 
  C40      1.0000 0.79672  0.42517  0.81062  Biso   1.000  C 
  C41      1.0000 0.12530  0.75245  0.14535  Biso   1.000  C 
  C42      1.0000 0.34407  0.92390  0.35427  Biso   1.000  C 
  C43      1.0000 0.65565  0.92976  0.35050  Biso   1.000  C 
  C44      1.0000 0.29518  0.92412  0.31425  Biso   1.000  C 
  C45      1.0000 0.20571  0.42607  0.81341  Biso   1.000  C 
  C46      1.0000 0.15707  0.42764  0.85420  Biso   1.000  C 
  C47      1.0000 0.07444  0.75214  0.09767  Biso   1.000  C 
  C48      1.0000 0.85412  0.57275  0.18430  Biso   1.000  C 
  C49      1.0000 0.15603  0.92822  0.14900  Biso   1.000  C 
  C50      1.0000 0.20452  0.92675  0.19027  Biso   1.000  C 
  C51      1.0000 0.35536  0.07295  0.68642  Biso   1.000  C 
  C52      1.0000 0.64376  0.57679  0.31620  Biso   1.000  C 
  C53      1.0000 0.30700  0.07437  0.72809  Biso   1.000  C 
  C54      1.0000 0.19325  0.07520  0.77704  Biso   1.000  C 
  C55      1.0000 0.14497  0.07520  0.81906  Biso   1.000  C 
  C56      1.0000 0.80565  0.57517  0.22563  Biso   1.000  C 
  H1       1.0000 0.85958  0.05787  0.11424  Biso   1.000  H 
  H2       1.0000 0.86069  0.55874  0.88330  Biso   1.000  H 
  H3       1.0000 0.70691  0.94017  0.75494  Biso   1.000  H 
  H4       1.0000 0.62114  0.94070  0.67805  Biso   1.000  H 
  H5       1.0000 0.20488  0.43958  0.25937  Biso   1.000  H 
  H6       1.0000 0.11948  0.44032  0.18137  Biso   1.000  H 
  H7       1.0000 0.77317  0.56126  0.81258  Biso   1.000  H 
  H8       1.0000 0.61967  0.44075  0.31963  Biso   1.000  H 
  H9       1.0000 0.20645  0.93843  0.74488  Biso   1.000  H 
  H10      1.0000 0.14161  0.06394  0.11762  Biso   1.000  H 
  H11      1.0000 0.70514  0.43995  0.24186  Biso   1.000  H 
  H12      1.0000 0.35937  0.05879  0.38599  Biso   1.000  H 
  H13      1.0000 0.27165  0.06028  0.31601  Biso   1.000  H 
  H14      1.0000 0.12078  0.93937  0.82210  Biso   1.000  H 
  H15      1.0000 0.98122  0.74005  0.89145  Biso   1.000  H 
  H16      1.0000 0.77172  0.06028  0.18380  Biso   1.000  H 
  H17      1.0000 0.64103  0.06576  0.38141  Biso   1.000  H 
  H18      1.0000 0.36037  0.55908  0.61757  Biso   1.000  H 
  H19      1.0000 0.29135  0.43841  0.24351  Biso   1.000  H 
  H20      1.0000 0.87877  0.93692  0.81489  Biso   1.000  H 
  H21      1.0000 0.27273  0.55983  0.68793  Biso   1.000  H 
  H22      1.0000 0.29307  0.93867  0.76094  Biso   1.000  H 
  H23      1.0000 0.37874  0.93660  0.68448  Biso   1.000  H 
  H24      1.0000 0.79160  0.44011  0.25885  Biso   1.000  H 
  H25      1.0000 0.48100  0.24240  0.39160  Biso   1.000  H 
  H26      1.0000 0.48208  0.74227  0.60967  Biso   1.000  H 
  H27      1.0000 0.72987  0.56442  0.68671  Biso   1.000  H 
  H28      1.0000 0.87742  0.43618  0.18296  Biso   1.000  H 
  H29      1.0000 0.98044  0.24023  0.10865  Biso   1.000  H 
  H30      1.0000 0.22884  0.06251  0.18976  Biso   1.000  H 
  H31      1.0000 0.72839  0.06444  0.30954  Biso   1.000  H 
  H32      1.0000 0.23003  0.56184  0.81408  Biso   1.000  H 
  H33      1.0000 0.14252  0.56341  0.88538  Biso   1.000  H 
  H34      1.0000 0.37712  0.43570  0.31964  Biso   1.000  H 
  H35      1.0000 0.64228  0.56555  0.61576  Biso   1.000  H 
  H36      1.0000 0.79326  0.94087  0.73806  Biso   1.000  H 
  O1       1.0000 0.05731  0.42139  0.92819  Biso   1.000  O 
  O2       1.0000 0.44616  0.91597  0.42073  Biso   1.000  O 
  O3       1.0000 0.55622  0.92233  0.42596  Biso   1.000  O 
  O4       1.0000 0.94728  0.41450  0.91895  Biso   1.000  O 
  O5       1.0000 0.99889  0.24489  0.05358  Biso   1.000  O 
  O6       1.0000 0.49946  0.74651  0.55367  Biso   1.000  O 
  O7       1.0000 0.05299  0.08226  0.91765  Biso   1.000  O 
  O8       1.0000 0.55701  0.42239  0.57317  Biso   1.000  O 
  O9       1.0000 0.44479  0.57445  0.41998  Biso   1.000  O 
  O10      1.0000 0.55347  0.08291  0.58211  Biso   1.000  O 
  O11      1.0000 0.99931  0.74491  0.94683  Biso   1.000  O 
  O12      1.0000 0.55270  0.58283  0.41713  Biso   1.000  O 
  O13      1.0000 0.44703  0.41617  0.58155  Biso   1.000  O 
  O14      1.0000 0.44551  0.07466  0.58225  Biso   1.000  O 
  O15      1.0000 0.94652  0.91427  0.08030  Biso   1.000  O 
  O16      1.0000 0.05668  0.92145  0.07346  Biso   1.000  O 
  O17      1.0000 0.94459  0.57276  0.08065  Biso   1.000  O 
  O18      1.0000 0.94517  0.07298  0.91865  Biso   1.000  O 
  O19      1.0000 0.49893  0.24645  0.44713  Biso   1.000  O 
  O20      1.0000 0.05244  0.58229  0.08391  Biso   1.000  O 
