data_image0
_cell_length_a       27.9338
_cell_length_b       6.67906
_cell_length_c       7.20957
_cell_angle_alpha    92.619
_cell_angle_beta     89.3524
_cell_angle_gamma    86.3234

_symmetry_space_group_name_H-M    "P 1"
_symmetry_int_tables_number       1

loop_
  _symmetry_equiv_pos_as_xyz
  'x, y, z'

loop_
  _atom_site_label
  _atom_site_occupancy
  _atom_site_fract_x
  _atom_site_fract_y
  _atom_site_fract_z
  _atom_site_thermal_displace_type
  _atom_site_B_iso_or_equiv
  _atom_site_type_symbol
  Al1      1.0000 0.99901  0.49668  0.00840  Biso   1.000  Al
  Al2      1.0000 0.49898  0.99606  0.50435  Biso   1.000  Al
  Al3      1.0000 0.99913  0.99658  0.00080  Biso   1.000  Al
  Al4      1.0000 0.49908  0.49575  0.49614  Biso   1.000  Al
  C1       1.0000 0.72240  0.74566  0.24728  Biso   1.000  C 
  C2       1.0000 0.65007  0.06977  0.77331  Biso   1.000  C 
  C3       1.0000 0.69972  0.07348  0.78459  Biso   1.000  C 
  C4       1.0000 0.62167  0.72674  0.26367  Biso   1.000  C 
  C5       1.0000 0.56937  0.71913  0.30544  Biso   1.000  C 
  C6       1.0000 0.22285  0.24720  0.75292  Biso   1.000  C 
  C7       1.0000 0.77508  0.75624  0.24756  Biso   1.000  C 
  C8       1.0000 0.79608  0.93106  0.19345  Biso   1.000  C 
  C9       1.0000 0.12214  0.22779  0.77045  Biso   1.000  C 
  C10      1.0000 0.06983  0.21996  0.81187  Biso   1.000  C 
  C11      1.0000 0.27556  0.75205  0.25118  Biso   1.000  C 
  C12      1.0000 0.84559  0.94137  0.18783  Biso   1.000  C 
  C13      1.0000 0.37625  0.27559  0.73280  Biso   1.000  C 
  C14      1.0000 0.19925  0.57572  0.29073  Biso   1.000  C 
  C15      1.0000 0.30551  0.57836  0.20574  Biso   1.000  C 
  C16      1.0000 0.35515  0.58082  0.21845  Biso   1.000  C 
  C17      1.0000 0.34599  0.44213  0.68918  Biso   1.000  C 
  C18      1.0000 0.92883  0.25889  0.81960  Biso   1.000  C 
  C19      1.0000 0.27554  0.25773  0.75177  Biso   1.000  C 
  C20      1.0000 0.80628  0.07696  0.70308  Biso   1.000  C 
  C21      1.0000 0.85588  0.08009  0.71793  Biso   1.000  C 
  C22      1.0000 0.77611  0.25029  0.74746  Biso   1.000  C 
  C23      1.0000 0.42842  0.75866  0.31760  Biso   1.000  C 
  C24      1.0000 0.87682  0.25794  0.77446  Biso   1.000  C 
  C25      1.0000 0.69489  0.41922  0.69793  Biso   1.000  C 
  C26      1.0000 0.29648  0.43238  0.69687  Biso   1.000  C 
  C27      1.0000 0.14961  0.57193  0.28011  Biso   1.000  C 
  C28      1.0000 0.37633  0.75841  0.27404  Biso   1.000  C 
  C29      1.0000 0.87581  0.77518  0.23268  Biso   1.000  C 
  C30      1.0000 0.42869  0.27610  0.69073  Biso   1.000  C 
  C31      1.0000 0.70088  0.56292  0.21069  Biso   1.000  C 
  C32      1.0000 0.64524  0.41740  0.69080  Biso   1.000  C 
  C33      1.0000 0.92834  0.77636  0.19276  Biso   1.000  C 
  C34      1.0000 0.72327  0.24693  0.74315  Biso   1.000  C 
  C35      1.0000 0.69214  0.91991  0.28489  Biso   1.000  C 
  C36      1.0000 0.62233  0.24147  0.72442  Biso   1.000  C 
  C37      1.0000 0.57010  0.23578  0.68456  Biso   1.000  C 
  C38      1.0000 0.22272  0.74912  0.24860  Biso   1.000  C 
  C39      1.0000 0.84723  0.43350  0.81070  Biso   1.000  C 
  C40      1.0000 0.79771  0.42908  0.79882  Biso   1.000  C 
  C41      1.0000 0.12182  0.74352  0.23130  Biso   1.000  C 
  C42      1.0000 0.34694  0.93434  0.31131  Biso   1.000  C 
  C43      1.0000 0.64262  0.91110  0.29084  Biso   1.000  C 
  C44      1.0000 0.29738  0.93059  0.30143  Biso   1.000  C 
  C45      1.0000 0.19257  0.42129  0.79102  Biso   1.000  C 
  C46      1.0000 0.14306  0.41222  0.79762  Biso   1.000  C 
  C47      1.0000 0.06965  0.73712  0.19092  Biso   1.000  C 
  C48      1.0000 0.85539  0.60187  0.29168  Biso   1.000  C 
  C49      1.0000 0.14464  0.91964  0.19756  Biso   1.000  C 
  C50      1.0000 0.19430  0.92147  0.20393  Biso   1.000  C 
  C51      1.0000 0.35590  0.10255  0.79276  Biso   1.000  C 
  C52      1.0000 0.65130  0.55280  0.22075  Biso   1.000  C 
  C53      1.0000 0.30628  0.09475  0.80387  Biso   1.000  C 
  C54      1.0000 0.20136  0.06433  0.71683  Biso   1.000  C 
  C55      1.0000 0.15179  0.05396  0.72738  Biso   1.000  C 
  C56      1.0000 0.80575  0.59351  0.30072  Biso   1.000  C 
  H1       1.0000 0.86156  0.07515  0.14126  Biso   1.000  H 
  H2       1.0000 0.86356  0.57086  0.85576  Biso   1.000  H 
  H3       1.0000 0.72068  0.94012  0.82668  Biso   1.000  H 
  H4       1.0000 0.63235  0.93333  0.80108  Biso   1.000  H 
  H5       1.0000 0.22028  0.44246  0.33257  Biso   1.000  H 
  H6       1.0000 0.13191  0.43547  0.30801  Biso   1.000  H 
  H7       1.0000 0.77529  0.56460  0.83712  Biso   1.000  H 
  H8       1.0000 0.63509  0.40981  0.19727  Biso   1.000  H 
  H9       1.0000 0.22393  0.92881  0.67971  Biso   1.000  H 
  H10      1.0000 0.12296  0.05192  0.15838  Biso   1.000  H 
  H11      1.0000 0.72344  0.42731  0.17381  Biso   1.000  H 
  H12      1.0000 0.36350  0.07145  0.35553  Biso   1.000  H 
  H13      1.0000 0.27512  0.06634  0.34044  Biso   1.000  H 
  H14      1.0000 0.13562  0.91087  0.70402  Biso   1.000  H 
  H15      1.0000 0.00371  0.72786  0.75779  Biso   1.000  H 
  H16      1.0000 0.77332  0.05802  0.14856  Biso   1.000  H 
  H17      1.0000 0.61943  0.04535  0.32469  Biso   1.000  H 
  H18      1.0000 0.36191  0.57570  0.64182  Biso   1.000  H 
  H19      1.0000 0.28969  0.43982  0.15966  Biso   1.000  H 
  H20      1.0000 0.87891  0.94407  0.68875  Biso   1.000  H 
  H21      1.0000 0.27365  0.55961  0.65289  Biso   1.000  H 
  H22      1.0000 0.29110  0.96017  0.85333  Biso   1.000  H 
  H23      1.0000 0.37944  0.97351  0.82733  Biso   1.000  H 
  H24      1.0000 0.79052  0.45871  0.34948  Biso   1.000  H 
  H25      1.0000 0.50392  0.22651  0.25360  Biso   1.000  H 
  H26      1.0000 0.50965  0.74851  0.74233  Biso   1.000  H 
  H27      1.0000 0.71205  0.55438  0.66145  Biso   1.000  H 
  H28      1.0000 0.87891  0.47311  0.32723  Biso   1.000  H 
  H29      1.0000 0.00876  0.24976  0.24751  Biso   1.000  H 
  H30      1.0000 0.21142  0.05660  0.16707  Biso   1.000  H 
  H31      1.0000 0.70767  0.06281  0.31722  Biso   1.000  H 
  H32      1.0000 0.20810  0.56424  0.82315  Biso   1.000  H 
  H33      1.0000 0.11985  0.54635  0.83182  Biso   1.000  H 
  H34      1.0000 0.37803  0.44458  0.18830  Biso   1.000  H 
  H35      1.0000 0.62361  0.54975  0.65141  Biso   1.000  H 
  H36      1.0000 0.79070  0.93820  0.65612  Biso   1.000  H 
  O1       1.0000 0.04487  0.38708  0.82338  Biso   1.000  O 
  O2       1.0000 0.44494  0.92829  0.35790  Biso   1.000  O 
  O3       1.0000 0.54449  0.88637  0.31784  Biso   1.000  O 
  O4       1.0000 0.94520  0.42874  0.86021  Biso   1.000  O 
  O5       1.0000 0.99971  0.25040  0.11825  Biso   1.000  O 
  O6       1.0000 0.49993  0.74948  0.61382  Biso   1.000  O 
  O7       1.0000 0.05394  0.04969  0.84358  Biso   1.000  O 
  O8       1.0000 0.54607  0.40361  0.67275  Biso   1.000  O 
  O9       1.0000 0.45245  0.58971  0.32123  Biso   1.000  O 
  O10      1.0000 0.55348  0.06372  0.65490  Biso   1.000  O 
  O11      1.0000 0.99963  0.73983  0.89145  Biso   1.000  O 
  O12      1.0000 0.55345  0.54882  0.33681  Biso   1.000  O 
  O13      1.0000 0.44510  0.44265  0.65121  Biso   1.000  O 
  O14      1.0000 0.45324  0.10787  0.68722  Biso   1.000  O 
  O15      1.0000 0.94475  0.94314  0.15395  Biso   1.000  O 
  O16      1.0000 0.04547  0.90465  0.17930  Biso   1.000  O 
  O17      1.0000 0.95298  0.60835  0.19020  Biso   1.000  O 
  O18      1.0000 0.95294  0.09019  0.82401  Biso   1.000  O 
  O19      1.0000 0.49938  0.23899  0.38707  Biso   1.000  O 
  O20      1.0000 0.05322  0.56489  0.16035  Biso   1.000  O 
