data_image0
_cell_length_a       23.3579
_cell_length_b       6.65291
_cell_length_c       18.7412
_cell_angle_alpha    89.9863
_cell_angle_beta     89.9988
_cell_angle_gamma    90.3342

_symmetry_space_group_name_H-M    "P 1"
_symmetry_int_tables_number       1

loop_
  _symmetry_equiv_pos_as_xyz
  'x, y, z'

loop_
  _atom_site_label
  _atom_site_occupancy
  _atom_site_fract_x
  _atom_site_fract_y
  _atom_site_fract_z
  _atom_site_thermal_displace_type
  _atom_site_B_iso_or_equiv
  _atom_site_type_symbol
  Al1      1.0000 0.00090  0.49464  0.00180  Biso   1.000  Al
  Al2      1.0000 0.50092  0.99960  0.50139  Biso   1.000  Al
  Al3      1.0000 0.00089  0.99465  0.99917  Biso   1.000  Al
  Al4      1.0000 0.50094  0.49960  0.49938  Biso   1.000  Al
  C1       1.0000 0.72452  0.75173  0.27411  Biso   1.000  C 
  C2       1.0000 0.64585  0.07691  0.66818  Biso   1.000  C 
  C3       1.0000 0.69256  0.07696  0.71413  Biso   1.000  C 
  C4       1.0000 0.62927  0.75377  0.36690  Biso   1.000  C 
  C5       1.0000 0.57923  0.75364  0.41624  Biso   1.000  C 
  C6       1.0000 0.22475  0.25120  0.77459  Biso   1.000  C 
  C7       1.0000 0.77464  0.74983  0.22602  Biso   1.000  C 
  C8       1.0000 0.79135  0.92289  0.18783  Biso   1.000  C 
  C9       1.0000 0.12955  0.25073  0.86747  Biso   1.000  C 
  C10      1.0000 0.07943  0.24988  0.91669  Biso   1.000  C 
  C11      1.0000 0.27476  0.75139  0.27464  Biso   1.000  C 
  C12      1.0000 0.83906  0.92152  0.14343  Biso   1.000  C 
  C13      1.0000 0.37103  0.24946  0.63479  Biso   1.000  C 
  C14      1.0000 0.19185  0.57598  0.21573  Biso   1.000  C 
  C15      1.0000 0.30730  0.57602  0.28461  Biso   1.000  C 
  C16      1.0000 0.35419  0.57460  0.33025  Biso   1.000  C 
  C17      1.0000 0.33917  0.42542  0.64448  Biso   1.000  C 
  C18      1.0000 0.92205  0.24284  0.91413  Biso   1.000  C 
  C19      1.0000 0.27479  0.25082  0.72637  Biso   1.000  C 
  C20      1.0000 0.80813  0.07479  0.78262  Biso   1.000  C 
  C21      1.0000 0.85490  0.07155  0.82847  Biso   1.000  C 
  C22      1.0000 0.77558  0.25049  0.77339  Biso   1.000  C 
  C23      1.0000 0.42169  0.74872  0.41455  Biso   1.000  C 
  C24      1.0000 0.87153  0.24559  0.86543  Biso   1.000  C 
  C25      1.0000 0.70920  0.42857  0.68912  Biso   1.000  C 
  C26      1.0000 0.29153  0.42527  0.68900  Biso   1.000  C 
  C27      1.0000 0.14526  0.57477  0.16956  Biso   1.000  C 
  C28      1.0000 0.37092  0.75004  0.36628  Biso   1.000  C 
  C29      1.0000 0.87093  0.74527  0.13457  Biso   1.000  C 
  C30      1.0000 0.42181  0.24837  0.58650  Biso   1.000  C 
  C31      1.0000 0.69176  0.57627  0.28567  Biso   1.000  C 
  C32      1.0000 0.66184  0.43022  0.64411  Biso   1.000  C 
  C33      1.0000 0.92171  0.74276  0.08632  Biso   1.000  C 
  C34      1.0000 0.72545  0.25227  0.72530  Biso   1.000  C 
  C35      1.0000 0.70825  0.92837  0.31003  Biso   1.000  C 
  C36      1.0000 0.62989  0.25392  0.63296  Biso   1.000  C 
  C37      1.0000 0.57958  0.25360  0.58403  Biso   1.000  C 
  C38      1.0000 0.22471  0.75163  0.22643  Biso   1.000  C 
  C39      1.0000 0.83983  0.42209  0.85619  Biso   1.000  C 
  C40      1.0000 0.79230  0.42367  0.81147  Biso   1.000  C 
  C41      1.0000 0.12947  0.75081  0.13362  Biso   1.000  C 
  C42      1.0000 0.33914  0.92613  0.35646  Biso   1.000  C 
  C43      1.0000 0.66106  0.93019  0.35528  Biso   1.000  C 
  C44      1.0000 0.29151  0.92594  0.31192  Biso   1.000  C 
  C45      1.0000 0.20877  0.42644  0.81156  Biso   1.000  C 
  C46      1.0000 0.16160  0.42706  0.85686  Biso   1.000  C 
  C47      1.0000 0.07930  0.74986  0.08447  Biso   1.000  C 
  C48      1.0000 0.85424  0.57119  0.17149  Biso   1.000  C 
  C49      1.0000 0.16142  0.92734  0.14429  Biso   1.000  C 
  C50      1.0000 0.20861  0.92692  0.18955  Biso   1.000  C 
  C51      1.0000 0.35431  0.07409  0.67090  Biso   1.000  C 
  C52      1.0000 0.64519  0.57648  0.33185  Biso   1.000  C 
  C53      1.0000 0.30736  0.07550  0.71648  Biso   1.000  C 
  C54      1.0000 0.19177  0.07579  0.78523  Biso   1.000  C 
  C55      1.0000 0.14520  0.07473  0.83144  Biso   1.000  C 
  C56      1.0000 0.80731  0.57431  0.21707  Biso   1.000  C 
  H1       1.0000 0.85164  0.05598  0.11397  Biso   1.000  H 
  H2       1.0000 0.85237  0.55654  0.88565  Biso   1.000  H 
  H3       1.0000 0.70315  0.93976  0.74300  Biso   1.000  H 
  H4       1.0000 0.62059  0.94083  0.65948  Biso   1.000  H 
  H5       1.0000 0.20234  0.43955  0.24511  Biso   1.000  H 
  H6       1.0000 0.12000  0.43851  0.16121  Biso   1.000  H 
  H7       1.0000 0.76689  0.56016  0.80712  Biso   1.000  H 
  H8       1.0000 0.62004  0.44035  0.34094  Biso   1.000  H 
  H9       1.0000 0.20216  0.93943  0.75577  Biso   1.000  H 
  H10      1.0000 0.14910  0.06315  0.11575  Biso   1.000  H 
  H11      1.0000 0.70235  0.43881  0.25698  Biso   1.000  H 
  H12      1.0000 0.35173  0.06167  0.38528  Biso   1.000  H 
  H13      1.0000 0.26609  0.06224  0.30698  Biso   1.000  H 
  H14      1.0000 0.11987  0.93862  0.83975  Biso   1.000  H 
  H15      1.0000 0.97941  0.73932  0.91155  Biso   1.000  H 
  H16      1.0000 0.76584  0.05919  0.19194  Biso   1.000  H 
  H17      1.0000 0.64863  0.06700  0.38313  Biso   1.000  H 
  H18      1.0000 0.35173  0.56089  0.61558  Biso   1.000  H 
  H19      1.0000 0.29631  0.44007  0.25502  Biso   1.000  H 
  H20      1.0000 0.87968  0.93466  0.83544  Biso   1.000  H 
  H21      1.0000 0.26609  0.56153  0.69385  Biso   1.000  H 
  H22      1.0000 0.29642  0.93964  0.74619  Biso   1.000  H 
  H23      1.0000 0.37918  0.93762  0.66349  Biso   1.000  H 
  H24      1.0000 0.79641  0.43960  0.24746  Biso   1.000  H 
  H25      1.0000 0.47826  0.24563  0.41209  Biso   1.000  H 
  H26      1.0000 0.47841  0.74555  0.58875  Biso   1.000  H 
  H27      1.0000 0.73484  0.56504  0.69519  Biso   1.000  H 
  H28      1.0000 0.87914  0.43451  0.16475  Biso   1.000  H 
  H29      1.0000 0.97910  0.23924  0.08932  Biso   1.000  H 
  H30      1.0000 0.23424  0.06350  0.19527  Biso   1.000  H 
  H31      1.0000 0.73379  0.06493  0.30359  Biso   1.000  H 
  H32      1.0000 0.23448  0.56288  0.80587  Biso   1.000  H 
  H33      1.0000 0.14938  0.56283  0.88548  Biso   1.000  H 
  H34      1.0000 0.37905  0.43816  0.33775  Biso   1.000  H 
  H35      1.0000 0.64941  0.56681  0.61611  Biso   1.000  H 
  H36      1.0000 0.79724  0.94002  0.75230  Biso   1.000  H 
  O1       1.0000 0.06216  0.41894  0.93979  Biso   1.000  O 
  O2       1.0000 0.44207  0.91896  0.43350  Biso   1.000  O 
  O3       1.0000 0.56118  0.92304  0.43804  Biso   1.000  O 
  O4       1.0000 0.94301  0.41250  0.93275  Biso   1.000  O 
  O5       1.0000 0.99914  0.24317  0.04407  Biso   1.000  O 
  O6       1.0000 0.49913  0.74846  0.54397  Biso   1.000  O 
  O7       1.0000 0.05717  0.07986  0.93176  Biso   1.000  O 
  O8       1.0000 0.56139  0.42301  0.56237  Biso   1.000  O 
  O9       1.0000 0.44103  0.57740  0.43299  Biso   1.000  O 
  O10      1.0000 0.55810  0.08329  0.56778  Biso   1.000  O 
  O11      1.0000 0.99926  0.74317  0.95692  Biso   1.000  O 
  O12      1.0000 0.55783  0.58334  0.43271  Biso   1.000  O 
  O13      1.0000 0.44215  0.41865  0.56750  Biso   1.000  O 
  O14      1.0000 0.44121  0.07713  0.56808  Biso   1.000  O 
  O15      1.0000 0.94274  0.91249  0.06789  Biso   1.000  O 
  O16      1.0000 0.06196  0.91891  0.06142  Biso   1.000  O 
  O17      1.0000 0.94040  0.57099  0.06736  Biso   1.000  O 
  O18      1.0000 0.94059  0.07103  0.93329  Biso   1.000  O 
  O19      1.0000 0.49903  0.24854  0.45683  Biso   1.000  O 
  O20      1.0000 0.05707  0.57979  0.06942  Biso   1.000  O 
