data_image0
_cell_length_a       27.8924
_cell_length_b       6.65589
_cell_length_c       6.80031
_cell_angle_alpha    97.364
_cell_angle_beta     87.8892
_cell_angle_gamma    84.5475

_symmetry_space_group_name_H-M    "P 1"
_symmetry_int_tables_number       1

loop_
  _symmetry_equiv_pos_as_xyz
  'x, y, z'

loop_
  _atom_site_label
  _atom_site_occupancy
  _atom_site_fract_x
  _atom_site_fract_y
  _atom_site_fract_z
  _atom_site_thermal_displace_type
  _atom_site_B_iso_or_equiv
  _atom_site_type_symbol
  Al1      1.0000 0.99907  0.49684  0.01141  Biso   1.000  Al
  Al2      1.0000 0.49915  0.99723  0.50413  Biso   1.000  Al
  Al3      1.0000 0.99926  0.99647  0.00387  Biso   1.000  Al
  Al4      1.0000 0.49929  0.49668  0.49640  Biso   1.000  Al
  C1       1.0000 0.72253  0.74210  0.24299  Biso   1.000  C 
  C2       1.0000 0.65053  0.07774  0.77732  Biso   1.000  C 
  C3       1.0000 0.70023  0.07927  0.78674  Biso   1.000  C 
  C4       1.0000 0.62241  0.70523  0.24613  Biso   1.000  C 
  C5       1.0000 0.56987  0.69417  0.28622  Biso   1.000  C 
  C6       1.0000 0.22304  0.24282  0.74931  Biso   1.000  C 
  C7       1.0000 0.77471  0.76247  0.25111  Biso   1.000  C 
  C8       1.0000 0.79372  0.93825  0.19935  Biso   1.000  C 
  C9       1.0000 0.12290  0.20522  0.75584  Biso   1.000  C 
  C10      1.0000 0.07034  0.19403  0.79611  Biso   1.000  C 
  C11      1.0000 0.27581  0.74881  0.24869  Biso   1.000  C 
  C12      1.0000 0.84291  0.95637  0.19989  Biso   1.000  C 
  C13      1.0000 0.37555  0.29794  0.74714  Biso   1.000  C 
  C14      1.0000 0.19980  0.58000  0.29375  Biso   1.000  C 
  C15      1.0000 0.30679  0.56677  0.21217  Biso   1.000  C 
  C16      1.0000 0.35642  0.56817  0.22424  Biso   1.000  C 
  C17      1.0000 0.34330  0.45736  0.69998  Biso   1.000  C 
  C18      1.0000 0.92893  0.25362  0.81870  Biso   1.000  C 
  C19      1.0000 0.27528  0.26345  0.75481  Biso   1.000  C 
  C20      1.0000 0.80740  0.06604  0.70967  Biso   1.000  C 
  C21      1.0000 0.85697  0.06737  0.72436  Biso   1.000  C 
  C22      1.0000 0.77638  0.24803  0.74456  Biso   1.000  C 
  C23      1.0000 0.42855  0.75449  0.31478  Biso   1.000  C 
  C24      1.0000 0.87717  0.25142  0.77202  Biso   1.000  C 
  C25      1.0000 0.69450  0.41849  0.69400  Biso   1.000  C 
  C26      1.0000 0.29409  0.43920  0.70188  Biso   1.000  C 
  C27      1.0000 0.15008  0.57839  0.28576  Biso   1.000  C 
  C28      1.0000 0.37666  0.75229  0.27080  Biso   1.000  C 
  C29      1.0000 0.87492  0.79691  0.24852  Biso   1.000  C 
  C30      1.0000 0.42838  0.30255  0.70848  Biso   1.000  C 
  C31      1.0000 0.70483  0.54971  0.21088  Biso   1.000  C 
  C32      1.0000 0.64473  0.41975  0.68981  Biso   1.000  C 
  C33      1.0000 0.92781  0.80178  0.21271  Biso   1.000  C 
  C34      1.0000 0.72344  0.24789  0.74098  Biso   1.000  C 
  C35      1.0000 0.68880  0.91584  0.26832  Biso   1.000  C 
  C36      1.0000 0.62229  0.24772  0.72706  Biso   1.000  C 
  C37      1.0000 0.57020  0.24172  0.68758  Biso   1.000  C 
  C38      1.0000 0.22286  0.74885  0.24764  Biso   1.000  C 
  C39      1.0000 0.84682  0.43439  0.79927  Biso   1.000  C 
  C40      1.0000 0.79730  0.43225  0.78676  Biso   1.000  C 
  C41      1.0000 0.12171  0.74851  0.23651  Biso   1.000  C 
  C42      1.0000 0.34633  0.93523  0.29981  Biso   1.000  C 
  C43      1.0000 0.63964  0.89789  0.26733  Biso   1.000  C 
  C44      1.0000 0.29676  0.93307  0.28991  Biso   1.000  C 
  C45      1.0000 0.18923  0.41629  0.77576  Biso   1.000  C 
  C46      1.0000 0.14007  0.39804  0.77638  Biso   1.000  C 
  C47      1.0000 0.06963  0.74203  0.19726  Biso   1.000  C 
  C48      1.0000 0.85644  0.62308  0.30574  Biso   1.000  C 
  C49      1.0000 0.14400  0.92090  0.19931  Biso   1.000  C 
  C50      1.0000 0.19378  0.91977  0.20219  Biso   1.000  C 
  C51      1.0000 0.35728  0.12418  0.80554  Biso   1.000  C 
  C52      1.0000 0.65557  0.53098  0.21471  Biso   1.000  C 
  C53      1.0000 0.30789  0.10843  0.81122  Biso   1.000  C 
  C54      1.0000 0.20538  0.05025  0.71836  Biso   1.000  C 
  C55      1.0000 0.15613  0.03119  0.72385  Biso   1.000  C 
  C56      1.0000 0.80705  0.60739  0.30895  Biso   1.000  C 
  H1       1.0000 0.85740  0.09069  0.15508  Biso   1.000  H 
  H2       1.0000 0.86246  0.57702  0.83850  Biso   1.000  H 
  H3       1.0000 0.72143  0.94769  0.83080  Biso   1.000  H 
  H4       1.0000 0.63317  0.94434  0.80784  Biso   1.000  H 
  H5       1.0000 0.22115  0.44819  0.33661  Biso   1.000  H 
  H6       1.0000 0.13282  0.44475  0.31629  Biso   1.000  H 
  H7       1.0000 0.77424  0.57526  0.81838  Biso   1.000  H 
  H8       1.0000 0.64230  0.38128  0.19521  Biso   1.000  H 
  H9       1.0000 0.23077  0.91372  0.68948  Biso   1.000  H 
  H10      1.0000 0.12183  0.05196  0.15988  Biso   1.000  H 
  H11      1.0000 0.73018  0.41301  0.18275  Biso   1.000  H 
  H12      1.0000 0.36207  0.07775  0.33822  Biso   1.000  H 
  H13      1.0000 0.27374  0.07604  0.32287  Biso   1.000  H 
  H14      1.0000 0.14293  0.88137  0.70492  Biso   1.000  H 
  H15      1.0000 0.99926  0.70777  0.74236  Biso   1.000  H 
  H16      1.0000 0.76978  0.05962  0.15115  Biso   1.000  H 
  H17      1.0000 0.61368  0.03256  0.29189  Biso   1.000  H 
  H18      1.0000 0.35759  0.59171  0.65423  Biso   1.000  H 
  H19      1.0000 0.29191  0.42227  0.17281  Biso   1.000  H 
  H20      1.0000 0.88058  0.92547  0.70263  Biso   1.000  H 
  H21      1.0000 0.26997  0.56057  0.65469  Biso   1.000  H 
  H22      1.0000 0.29444  0.97320  0.85931  Biso   1.000  H 
  H23      1.0000 0.38239  0.00047  0.84245  Biso   1.000  H 
  H24      1.0000 0.79341  0.47212  0.35613  Biso   1.000  H 
  H25      1.0000 0.49978  0.20736  0.23490  Biso   1.000  H 
  H26      1.0000 0.51016  0.76955  0.75809  Biso   1.000  H 
  H27      1.0000 0.71123  0.55017  0.65450  Biso   1.000  H 
  H28      1.0000 0.88139  0.49940  0.34375  Biso   1.000  H 
  H29      1.0000 0.00978  0.26967  0.26568  Biso   1.000  H 
  H30      1.0000 0.21042  0.05153  0.16229  Biso   1.000  H 
  H31      1.0000 0.70111  0.06685  0.29773  Biso   1.000  H 
  H32      1.0000 0.20152  0.56742  0.80447  Biso   1.000  H 
  H33      1.0000 0.11409  0.53265  0.80149  Biso   1.000  H 
  H34      1.0000 0.38007  0.42634  0.20131  Biso   1.000  H 
  H35      1.0000 0.62269  0.55081  0.64955  Biso   1.000  H 
  H36      1.0000 0.79260  0.92149  0.66951  Biso   1.000  H 
  O1       1.0000 0.04280  0.35958  0.80163  Biso   1.000  O 
  O2       1.0000 0.44355  0.92816  0.36248  Biso   1.000  O 
  O3       1.0000 0.54235  0.85995  0.29258  Biso   1.000  O 
  O4       1.0000 0.94388  0.42733  0.86679  Biso   1.000  O 
  O5       1.0000 0.99965  0.26051  0.13035  Biso   1.000  O 
  O6       1.0000 0.50004  0.76062  0.62276  Biso   1.000  O 
  O7       1.0000 0.05631  0.02602  0.83527  Biso   1.000  O 
  O8       1.0000 0.54499  0.41098  0.68201  Biso   1.000  O 
  O9       1.0000 0.45401  0.58404  0.31190  Biso   1.000  O 
  O10      1.0000 0.55490  0.06670  0.65080  Biso   1.000  O 
  O11      1.0000 0.99985  0.72981  0.88575  Biso   1.000  O 
  O12      1.0000 0.55583  0.52599  0.32487  Biso   1.000  O 
  O13      1.0000 0.44312  0.46675  0.66342  Biso   1.000  O 
  O14      1.0000 0.45542  0.13679  0.71151  Biso   1.000  O 
  O15      1.0000 0.94267  0.96616  0.16874  Biso   1.000  O 
  O16      1.0000 0.04428  0.91101  0.19186  Biso   1.000  O 
  O17      1.0000 0.95480  0.63607  0.21692  Biso   1.000  O 
  O18      1.0000 0.95432  0.08321  0.81742  Biso   1.000  O 
  O19      1.0000 0.49957  0.23015  0.37846  Biso   1.000  O 
  O20      1.0000 0.05445  0.56681  0.16009  Biso   1.000  O 
