data_image0
_cell_length_a       27.8372
_cell_length_b       6.60653
_cell_length_c       6.3448
_cell_angle_alpha    99.6261
_cell_angle_beta     87.3813
_cell_angle_gamma    82.7263

_symmetry_space_group_name_H-M    "P 1"
_symmetry_int_tables_number       1

loop_
  _symmetry_equiv_pos_as_xyz
  'x, y, z'

loop_
  _atom_site_label
  _atom_site_occupancy
  _atom_site_fract_x
  _atom_site_fract_y
  _atom_site_fract_z
  _atom_site_thermal_displace_type
  _atom_site_B_iso_or_equiv
  _atom_site_type_symbol
  Al1      1.0000 0.99916  0.49848  0.00859  Biso   1.000  Al
  Al2      1.0000 0.49917  0.99911  0.50627  Biso   1.000  Al
  Al3      1.0000 0.99948  0.99783  0.00229  Biso   1.000  Al
  Al4      1.0000 0.49946  0.49871  0.50022  Biso   1.000  Al
  C1       1.0000 0.70752  0.54268  0.22092  Biso   1.000  C 
  C2       1.0000 0.64305  0.41995  0.70172  Biso   1.000  C 
  C3       1.0000 0.92712  0.81968  0.22533  Biso   1.000  C 
  C4       1.0000 0.72360  0.24457  0.74148  Biso   1.000  C 
  C5       1.0000 0.68686  0.91252  0.25364  Biso   1.000  C 
  C6       1.0000 0.62220  0.24508  0.73593  Biso   1.000  C 
  C7       1.0000 0.56999  0.23993  0.69940  Biso   1.000  C 
  C8       1.0000 0.22314  0.74556  0.24617  Biso   1.000  C 
  C9       1.0000 0.84567  0.43845  0.78307  Biso   1.000  C 
  C10      1.0000 0.79613  0.43436  0.77375  Biso   1.000  C 
  C11      1.0000 0.12175  0.74563  0.24129  Biso   1.000  C 
  C12      1.0000 0.34518  0.93980  0.28527  Biso   1.000  C 
  C13      1.0000 0.29562  0.93557  0.27697  Biso   1.000  C 
  C14      1.0000 0.42754  0.32039  0.72561  Biso   1.000  C 
  C15      1.0000 0.18728  0.41229  0.75895  Biso   1.000  C 
  C16      1.0000 0.13850  0.38928  0.75326  Biso   1.000  C 
  C17      1.0000 0.06960  0.73998  0.20412  Biso   1.000  C 
  C18      1.0000 0.85781  0.63123  0.30896  Biso   1.000  C 
  C19      1.0000 0.14254  0.92069  0.20705  Biso   1.000  C 
  C20      1.0000 0.19241  0.91903  0.20621  Biso   1.000  C 
  C21      1.0000 0.35842  0.13139  0.81060  Biso   1.000  C 
  C22      1.0000 0.65865  0.51933  0.22088  Biso   1.000  C 
  C23      1.0000 0.30936  0.11099  0.81228  Biso   1.000  C 
  C24      1.0000 0.15911  0.01911  0.72615  Biso   1.000  C 
  C25      1.0000 0.80874  0.61109  0.30959  Biso   1.000  C 
  C26      1.0000 0.63808  0.88953  0.24770  Biso   1.000  C 
  C27      1.0000 0.87423  0.80965  0.25581  Biso   1.000  C 
  C28      1.0000 0.20799  0.04248  0.72593  Biso   1.000  C 
  C29      1.0000 0.15174  0.57193  0.28292  Biso   1.000  C 
  C30      1.0000 0.37699  0.75443  0.26571  Biso   1.000  C 
  C31      1.0000 0.72277  0.74004  0.24249  Biso   1.000  C 
  C32      1.0000 0.65212  0.07122  0.77758  Biso   1.000  C 
  C33      1.0000 0.70191  0.07257  0.78341  Biso   1.000  C 
  C34      1.0000 0.62333  0.69290  0.23680  Biso   1.000  C 
  C35      1.0000 0.22322  0.23983  0.74728  Biso   1.000  C 
  C36      1.0000 0.77455  0.76597  0.25348  Biso   1.000  C 
  C37      1.0000 0.79156  0.94584  0.20518  Biso   1.000  C 
  C38      1.0000 0.12376  0.19261  0.74217  Biso   1.000  C 
  C39      1.0000 0.07116  0.17869  0.77811  Biso   1.000  C 
  C40      1.0000 0.27608  0.74706  0.24751  Biso   1.000  C 
  C41      1.0000 0.84043  0.96843  0.20811  Biso   1.000  C 
  C42      1.0000 0.37469  0.31003  0.75722  Biso   1.000  C 
  C43      1.0000 0.57075  0.67915  0.27352  Biso   1.000  C 
  C44      1.0000 0.30859  0.56225  0.22319  Biso   1.000  C 
  C45      1.0000 0.20152  0.57352  0.28846  Biso   1.000  C 
  C46      1.0000 0.29189  0.44577  0.70816  Biso   1.000  C 
  C47      1.0000 0.69293  0.41809  0.70123  Biso   1.000  C 
  C48      1.0000 0.87744  0.25302  0.76421  Biso   1.000  C 
  C49      1.0000 0.77655  0.24594  0.74379  Biso   1.000  C 
  C50      1.0000 0.42889  0.75898  0.30784  Biso   1.000  C 
  C51      1.0000 0.80902  0.06109  0.72020  Biso   1.000  C 
  C52      1.0000 0.27502  0.26582  0.75704  Biso   1.000  C 
  C53      1.0000 0.92929  0.25760  0.80748  Biso   1.000  C 
  C54      1.0000 0.34075  0.46863  0.71010  Biso   1.000  C 
  C55      1.0000 0.35818  0.56572  0.23298  Biso   1.000  C 
  C56      1.0000 0.85860  0.06443  0.73112  Biso   1.000  C 
  H1       1.0000 0.26657  0.56753  0.66182  Biso   1.000  H 
  H2       1.0000 0.50984  0.78215  0.78272  Biso   1.000  H 
  H3       1.0000 0.29762  0.97181  0.85653  Biso   1.000  H 
  H4       1.0000 0.38487  0.00782  0.84687  Biso   1.000  H 
  H5       1.0000 0.79688  0.47206  0.35368  Biso   1.000  H 
  H6       1.0000 0.49441  0.20430  0.21818  Biso   1.000  H 
  H7       1.0000 0.70824  0.55271  0.66447  Biso   1.000  H 
  H8       1.0000 0.11089  0.52399  0.76621  Biso   1.000  H 
  H9       1.0000 0.00942  0.28143  0.28520  Biso   1.000  H 
  H10      1.0000 0.20767  0.05375  0.16939  Biso   1.000  H 
  H11      1.0000 0.69704  0.06802  0.27571  Biso   1.000  H 
  H12      1.0000 0.19746  0.56780  0.78107  Biso   1.000  H 
  H13      1.0000 0.38305  0.42243  0.21992  Biso   1.000  H 
  H14      1.0000 0.61966  0.55389  0.66774  Biso   1.000  H 
  H15      1.0000 0.79550  0.91210  0.69093  Biso   1.000  H 
  H16      1.0000 0.88342  0.92109  0.71863  Biso   1.000  H 
  H17      1.0000 0.88415  0.50767  0.34600  Biso   1.000  H 
  H18      1.0000 0.29507  0.41325  0.19420  Biso   1.000  H 
  H19      1.0000 0.14765  0.86636  0.71461  Biso   1.000  H 
  H20      1.0000 0.61048  0.02423  0.26046  Biso   1.000  H 
  H21      1.0000 0.35351  0.60708  0.66915  Biso   1.000  H 
  H22      1.0000 0.85330  0.10684  0.16762  Biso   1.000  H 
  H23      1.0000 0.86018  0.58525  0.81297  Biso   1.000  H 
  H24      1.0000 0.72431  0.93770  0.82154  Biso   1.000  H 
  H25      1.0000 0.22399  0.43883  0.32659  Biso   1.000  H 
  H26      1.0000 0.13564  0.43574  0.30978  Biso   1.000  H 
  H27      1.0000 0.77199  0.58052  0.79791  Biso   1.000  H 
  H28      1.0000 0.63596  0.93516  0.80435  Biso   1.000  H 
  H29      1.0000 0.23498  0.90529  0.70902  Biso   1.000  H 
  H30      1.0000 0.11910  0.05448  0.17307  Biso   1.000  H 
  H31      1.0000 0.73451  0.40549  0.20429  Biso   1.000  H 
  H32      1.0000 0.35968  0.08661  0.31488  Biso   1.000  H 
  H33      1.0000 0.27147  0.08171  0.30156  Biso   1.000  H 
  H34      1.0000 0.99473  0.70320  0.72021  Biso   1.000  H 
  H35      1.0000 0.64718  0.36662  0.20948  Biso   1.000  H 
  H36      1.0000 0.76637  0.06769  0.15827  Biso   1.000  H 
  O1       1.0000 0.55826  0.51220  0.32035  Biso   1.000  O 
  O2       1.0000 0.44073  0.48460  0.67564  Biso   1.000  O 
  O3       1.0000 0.45677  0.15738  0.73771  Biso   1.000  O 
  O4       1.0000 0.95623  0.65652  0.23812  Biso   1.000  O 
  O5       1.0000 0.04279  0.91195  0.20612  Biso   1.000  O 
  O6       1.0000 0.95650  0.08519  0.79883  Biso   1.000  O 
  O7       1.0000 0.00022  0.72630  0.87155  Biso   1.000  O 
  O8       1.0000 0.94047  0.98373  0.17569  Biso   1.000  O 
  O9       1.0000 0.55592  0.06223  0.65471  Biso   1.000  O 
  O10      1.0000 0.44242  0.93649  0.36196  Biso   1.000  O 
  O11      1.0000 0.54323  0.41214  0.70210  Biso   1.000  O 
  O12      1.0000 0.05861  0.01174  0.82470  Biso   1.000  O 
  O13      1.0000 0.49955  0.76831  0.63768  Biso   1.000  O 
  O14      1.0000 0.99933  0.26763  0.13986  Biso   1.000  O 
  O15      1.0000 0.94275  0.43521  0.86178  Biso   1.000  O 
  O16      1.0000 0.54113  0.84327  0.27127  Biso   1.000  O 
  O17      1.0000 0.04158  0.34276  0.77522  Biso   1.000  O 
  O18      1.0000 0.49992  0.22722  0.36952  Biso   1.000  O 
  O19      1.0000 0.45611  0.58650  0.29842  Biso   1.000  O 
  O20      1.0000 0.05557  0.56216  0.15935  Biso   1.000  O 
