data_image0
_cell_length_a       21.9486
_cell_length_b       6.7274
_cell_length_c       20.5543
_cell_angle_alpha    90.0115
_cell_angle_beta     90.0022
_cell_angle_gamma    90.1694

_symmetry_space_group_name_H-M    "P 1"
_symmetry_int_tables_number       1

loop_
  _symmetry_equiv_pos_as_xyz
  'x, y, z'

loop_
  _atom_site_label
  _atom_site_occupancy
  _atom_site_fract_x
  _atom_site_fract_y
  _atom_site_fract_z
  _atom_site_thermal_displace_type
  _atom_site_B_iso_or_equiv
  _atom_site_type_symbol
  Al1      1.0000 0.00085  0.49697  0.00087  Biso   1.000  Al
  Al2      1.0000 0.50073  0.99825  0.50095  Biso   1.000  Al
  Al3      1.0000 0.00091  0.99685  0.99955  Biso   1.000  Al
  Al4      1.0000 0.50083  0.49827  0.49954  Biso   1.000  Al
  C1       1.0000 0.69191  0.57740  0.29000  Biso   1.000  C 
  C2       1.0000 0.66567  0.42603  0.64215  Biso   1.000  C 
  C3       1.0000 0.91806  0.74668  0.08092  Biso   1.000  C 
  C4       1.0000 0.72668  0.25128  0.72336  Biso   1.000  C 
  C5       1.0000 0.71023  0.92568  0.30992  Biso   1.000  C 
  C6       1.0000 0.63321  0.25130  0.62802  Biso   1.000  C 
  C7       1.0000 0.58314  0.25080  0.57859  Biso   1.000  C 
  C8       1.0000 0.22466  0.75087  0.22569  Biso   1.000  C 
  C9       1.0000 0.83622  0.42214  0.85569  Biso   1.000  C 
  C10      1.0000 0.79004  0.42280  0.80922  Biso   1.000  C 
  C11      1.0000 0.13193  0.75019  0.12952  Biso   1.000  C 
  C12      1.0000 0.33462  0.92280  0.35747  Biso   1.000  C 
  C13      1.0000 0.28809  0.92279  0.31141  Biso   1.000  C 
  C14      1.0000 0.41857  0.24832  0.58152  Biso   1.000  C 
  C15      1.0000 0.21156  0.42510  0.81165  Biso   1.000  C 
  C16      1.0000 0.16547  0.42536  0.85820  Biso   1.000  C 
  C17      1.0000 0.08245  0.74950  0.07944  Biso   1.000  C 
  C18      1.0000 0.85307  0.57491  0.16516  Biso   1.000  C 
  C19      1.0000 0.16392  0.92539  0.14420  Biso   1.000  C 
  C20      1.0000 0.20979  0.92490  0.19102  Biso   1.000  C 
  C21      1.0000 0.35360  0.07586  0.66549  Biso   1.000  C 
  C22      1.0000 0.64668  0.57667  0.33746  Biso   1.000  C 
  C23      1.0000 0.30821  0.07758  0.71276  Biso   1.000  C 
  C24      1.0000 0.14793  0.07572  0.83859  Biso   1.000  C 
  C25      1.0000 0.80749  0.57710  0.21224  Biso   1.000  C 
  C26      1.0000 0.66421  0.92655  0.35658  Biso   1.000  C 
  C27      1.0000 0.86782  0.74778  0.13028  Biso   1.000  C 
  C28      1.0000 0.19322  0.07712  0.79121  Biso   1.000  C 
  C29      1.0000 0.14660  0.57535  0.16321  Biso   1.000  C 
  C30      1.0000 0.36751  0.74873  0.37057  Biso   1.000  C 
  C31      1.0000 0.72505  0.75151  0.27527  Biso   1.000  C 
  C32      1.0000 0.64786  0.07655  0.66176  Biso   1.000  C 
  C33      1.0000 0.69333  0.07732  0.70896  Biso   1.000  C 
  C34      1.0000 0.63202  0.75161  0.37111  Biso   1.000  C 
  C35      1.0000 0.22633  0.25148  0.77669  Biso   1.000  C 
  C36      1.0000 0.77384  0.75067  0.22542  Biso   1.000  C 
  C37      1.0000 0.78847  0.92260  0.18938  Biso   1.000  C 
  C38      1.0000 0.13320  0.25032  0.87240  Biso   1.000  C 
  C39      1.0000 0.08326  0.24959  0.92196  Biso   1.000  C 
  C40      1.0000 0.27337  0.75035  0.27565  Biso   1.000  C 
  C41      1.0000 0.83490  0.92193  0.14319  Biso   1.000  C 
  C42      1.0000 0.36850  0.24941  0.63106  Biso   1.000  C 
  C43      1.0000 0.58240  0.75094  0.42104  Biso   1.000  C 
  C44      1.0000 0.30690  0.57677  0.28912  Biso   1.000  C 
  C45      1.0000 0.19168  0.57653  0.21083  Biso   1.000  C 
  C46      1.0000 0.28974  0.42412  0.69108  Biso   1.000  C 
  C47      1.0000 0.71191  0.42519  0.68857  Biso   1.000  C 
  C48      1.0000 0.86891  0.24776  0.86894  Biso   1.000  C 
  C49      1.0000 0.77542  0.25060  0.77328  Biso   1.000  C 
  C50      1.0000 0.41791  0.74799  0.41972  Biso   1.000  C 
  C51      1.0000 0.80889  0.07688  0.78674  Biso   1.000  C 
  C52      1.0000 0.27494  0.25140  0.72663  Biso   1.000  C 
  C53      1.0000 0.91885  0.24652  0.91863  Biso   1.000  C 
  C54      1.0000 0.33596  0.42386  0.64465  Biso   1.000  C 
  C55      1.0000 0.35258  0.57528  0.33607  Biso   1.000  C 
  C56      1.0000 0.85424  0.07477  0.83406  Biso   1.000  C 
  H1       1.0000 0.26382  0.56004  0.69907  Biso   1.000  H 
  H2       1.0000 0.47826  0.74537  0.58113  Biso   1.000  H 
  H3       1.0000 0.29922  0.94241  0.74045  Biso   1.000  H 
  H4       1.0000 0.37882  0.94003  0.65538  Biso   1.000  H 
  H5       1.0000 0.79862  0.44264  0.24036  Biso   1.000  H 
  H6       1.0000 0.47759  0.24528  0.41958  Biso   1.000  H 
  H7       1.0000 0.73787  0.56119  0.69718  Biso   1.000  H 
  H8       1.0000 0.15429  0.56063  0.88481  Biso   1.000  H 
  H9       1.0000 0.97672  0.24411  0.08042  Biso   1.000  H 
  H10      1.0000 0.23549  0.06123  0.19992  Biso   1.000  H 
  H11      1.0000 0.73608  0.06175  0.30111  Biso   1.000  H 
  H12      1.0000 0.23740  0.56134  0.80307  Biso   1.000  H 
  H13      1.0000 0.37800  0.43966  0.34587  Biso   1.000  H 
  H14      1.0000 0.65457  0.56151  0.61563  Biso   1.000  H 
  H15      1.0000 0.80005  0.94221  0.75869  Biso   1.000  H 
  H16      1.0000 0.87959  0.93900  0.84385  Biso   1.000  H 
  H17      1.0000 0.87855  0.43920  0.15563  Biso   1.000  H 
  H18      1.0000 0.29791  0.44167  0.26135  Biso   1.000  H 
  H19      1.0000 0.12265  0.93996  0.84943  Biso   1.000  H 
  H20      1.0000 0.65311  0.06215  0.38305  Biso   1.000  H 
  H21      1.0000 0.34679  0.55866  0.61752  Biso   1.000  H 
  H22      1.0000 0.84558  0.05608  0.11567  Biso   1.000  H 
  H23      1.0000 0.84684  0.55648  0.88315  Biso   1.000  H 
  H24      1.0000 0.70230  0.94143  0.73622  Biso   1.000  H 
  H25      1.0000 0.20073  0.44043  0.23793  Biso   1.000  H 
  H26      1.0000 0.12150  0.43953  0.15199  Biso   1.000  H 
  H27      1.0000 0.76395  0.55851  0.80149  Biso   1.000  H 
  H28      1.0000 0.62239  0.94115  0.65097  Biso   1.000  H 
  H29      1.0000 0.20224  0.94127  0.76393  Biso   1.000  H 
  H30      1.0000 0.15275  0.06092  0.11774  Biso   1.000  H 
  H31      1.0000 0.70094  0.44123  0.26290  Biso   1.000  H 
  H32      1.0000 0.34538  0.05744  0.38474  Biso   1.000  H 
  H33      1.0000 0.26187  0.05830  0.30382  Biso   1.000  H 
  H34      1.0000 0.97747  0.74406  0.91976  Biso   1.000  H 
  H35      1.0000 0.62145  0.44105  0.34857  Biso   1.000  H 
  H36      1.0000 0.76224  0.05819  0.19680  Biso   1.000  H 
  O1       1.0000 0.56159  0.58209  0.43855  Biso   1.000  O 
  O2       1.0000 0.43836  0.41701  0.56208  Biso   1.000  O 
  O3       1.0000 0.43812  0.07878  0.56302  Biso   1.000  O 
  O4       1.0000 0.93765  0.57715  0.06243  Biso   1.000  O 
  O5       1.0000 0.06403  0.91735  0.05857  Biso   1.000  O 
  O6       1.0000 0.93835  0.07702  0.93723  Biso   1.000  O 
  O7       1.0000 0.99906  0.74611  0.96090  Biso   1.000  O 
  O8       1.0000 0.93794  0.91544  0.06160  Biso   1.000  O 
  O9       1.0000 0.56204  0.08202  0.56139  Biso   1.000  O 
  O10      1.0000 0.43773  0.91680  0.43905  Biso   1.000  O 
  O11      1.0000 0.56454  0.41867  0.55792  Biso   1.000  O 
  O12      1.0000 0.06229  0.08073  0.93925  Biso   1.000  O 
  O13      1.0000 0.49909  0.74748  0.53956  Biso   1.000  O 
  O14      1.0000 0.99866  0.24613  0.03950  Biso   1.000  O 
  O15      1.0000 0.93859  0.41528  0.93812  Biso   1.000  O 
  O16      1.0000 0.56389  0.91875  0.44185  Biso   1.000  O 
  O17      1.0000 0.06461  0.41742  0.94260  Biso   1.000  O 
  O18      1.0000 0.49879  0.24739  0.46095  Biso   1.000  O 
  O19      1.0000 0.43771  0.57857  0.43801  Biso   1.000  O 
  O20      1.0000 0.06164  0.58070  0.06187  Biso   1.000  O 
