data_image0
_cell_length_a       27.9024
_cell_length_b       6.6906
_cell_length_c       7.86959
_cell_angle_alpha    89.8935
_cell_angle_beta     89.9893
_cell_angle_gamma    87.3052

_symmetry_space_group_name_H-M    "P 1"
_symmetry_int_tables_number       1

loop_
  _symmetry_equiv_pos_as_xyz
  'x, y, z'

loop_
  _atom_site_label
  _atom_site_occupancy
  _atom_site_fract_x
  _atom_site_fract_y
  _atom_site_fract_z
  _atom_site_thermal_displace_type
  _atom_site_B_iso_or_equiv
  _atom_site_type_symbol
  Al1      1.0000 0.99881  0.49629  0.00404  Biso   1.000  Al
  Al2      1.0000 0.49884  0.99604  0.50366  Biso   1.000  Al
  Al3      1.0000 0.99884  0.99632  0.99623  Biso   1.000  Al
  Al4      1.0000 0.49884  0.49614  0.49597  Biso   1.000  Al
  C1       1.0000 0.72265  0.74820  0.25614  Biso   1.000  C 
  C2       1.0000 0.64931  0.06613  0.76100  Biso   1.000  C 
  C3       1.0000 0.69890  0.07177  0.77732  Biso   1.000  C 
  C4       1.0000 0.62178  0.73942  0.28501  Biso   1.000  C 
  C5       1.0000 0.56955  0.73374  0.32510  Biso   1.000  C 
  C6       1.0000 0.22292  0.24864  0.75813  Biso   1.000  C 
  C7       1.0000 0.77548  0.75308  0.24609  Biso   1.000  C 
  C8       1.0000 0.79732  0.92806  0.19270  Biso   1.000  C 
  C9       1.0000 0.12207  0.23968  0.78711  Biso   1.000  C 
  C10      1.0000 0.06981  0.23398  0.82668  Biso   1.000  C 
  C11      1.0000 0.27533  0.75382  0.25531  Biso   1.000  C 
  C12      1.0000 0.84688  0.93331  0.17813  Biso   1.000  C 
  C13      1.0000 0.37645  0.26222  0.71493  Biso   1.000  C 
  C14      1.0000 0.19853  0.57235  0.28005  Biso   1.000  C 
  C15      1.0000 0.30521  0.58515  0.21386  Biso   1.000  C 
  C16      1.0000 0.35482  0.58869  0.23114  Biso   1.000  C 
  C17      1.0000 0.34716  0.43349  0.67961  Biso   1.000  C 
  C18      1.0000 0.92846  0.26253  0.82856  Biso   1.000  C 
  C19      1.0000 0.27574  0.25354  0.74790  Biso   1.000  C 
  C20      1.0000 0.80561  0.08434  0.71212  Biso   1.000  C 
  C21      1.0000 0.85520  0.08801  0.73018  Biso   1.000  C 
  C22      1.0000 0.77567  0.25318  0.75254  Biso   1.000  C 
  C23      1.0000 0.42822  0.76257  0.32922  Biso   1.000  C 
  C24      1.0000 0.87635  0.26243  0.78594  Biso   1.000  C 
  C25      1.0000 0.69500  0.42065  0.69611  Biso   1.000  C 
  C26      1.0000 0.29760  0.42842  0.69433  Biso   1.000  C 
  C27      1.0000 0.14895  0.56673  0.26332  Biso   1.000  C 
  C28      1.0000 0.37606  0.76279  0.28708  Biso   1.000  C 
  C29      1.0000 0.87618  0.76213  0.21351  Biso   1.000  C 
  C30      1.0000 0.42856  0.26198  0.67208  Biso   1.000  C 
  C31      1.0000 0.69865  0.57180  0.22223  Biso   1.000  C 
  C32      1.0000 0.64538  0.41666  0.68361  Biso   1.000  C 
  C33      1.0000 0.92832  0.76213  0.17111  Biso   1.000  C 
  C34      1.0000 0.72286  0.24804  0.74200  Biso   1.000  C 
  C35      1.0000 0.69480  0.92128  0.30033  Biso   1.000  C 
  C36      1.0000 0.62204  0.23851  0.71278  Biso   1.000  C 
  C37      1.0000 0.56980  0.23272  0.67309  Biso   1.000  C 
  C38      1.0000 0.22250  0.74878  0.24536  Biso   1.000  C 
  C39      1.0000 0.84700  0.43369  0.82016  Biso   1.000  C 
  C40      1.0000 0.79745  0.42838  0.80514  Biso   1.000  C 
  C41      1.0000 0.12169  0.73925  0.21542  Biso   1.000  C 
  C42      1.0000 0.34676  0.93399  0.32215  Biso   1.000  C 
  C43      1.0000 0.64516  0.91765  0.31277  Biso   1.000  C 
  C44      1.0000 0.29719  0.92880  0.30791  Biso   1.000  C 
  C45      1.0000 0.19506  0.42168  0.80239  Biso   1.000  C 
  C46      1.0000 0.14543  0.41795  0.81489  Biso   1.000  C 
  C47      1.0000 0.06951  0.73331  0.17487  Biso   1.000  C 
  C48      1.0000 0.85498  0.58793  0.27005  Biso   1.000  C 
  C49      1.0000 0.14502  0.91761  0.18712  Biso   1.000  C 
  C50      1.0000 0.19464  0.92161  0.20003  Biso   1.000  C 
  C51      1.0000 0.35522  0.08821  0.77182  Biso   1.000  C 
  C52      1.0000 0.64904  0.56661  0.23832  Biso   1.000  C 
  C53      1.0000 0.30563  0.08481  0.78968  Biso   1.000  C 
  C54      1.0000 0.19894  0.07216  0.72435  Biso   1.000  C 
  C55      1.0000 0.14934  0.06685  0.74053  Biso   1.000  C 
  C56      1.0000 0.80538  0.58436  0.28776  Biso   1.000  C 
  H1       1.0000 0.86347  0.06754  0.13280  Biso   1.000  H 
  H2       1.0000 0.86355  0.56800  0.86506  Biso   1.000  H 
  H3       1.0000 0.71952  0.93802  0.81904  Biso   1.000  H 
  H4       1.0000 0.63122  0.92788  0.78455  Biso   1.000  H 
  H5       1.0000 0.21913  0.43840  0.32143  Biso   1.000  H 
  H6       1.0000 0.13084  0.42834  0.28620  Biso   1.000  H 
  H7       1.0000 0.77512  0.55978  0.84082  Biso   1.000  H 
  H8       1.0000 0.63092  0.42827  0.21599  Biso   1.000  H 
  H9       1.0000 0.21956  0.93793  0.68417  Biso   1.000  H 
  H10      1.0000 0.12376  0.05047  0.14811  Biso   1.000  H 
  H11      1.0000 0.71926  0.43756  0.18196  Biso   1.000  H 
  H12      1.0000 0.36337  0.06819  0.36699  Biso   1.000  H 
  H13      1.0000 0.27492  0.06012  0.34424  Biso   1.000  H 
  H14      1.0000 0.13122  0.92848  0.71822  Biso   1.000  H 
  H15      1.0000 0.00889  0.73851  0.77796  Biso   1.000  H 
  H16      1.0000 0.77503  0.05934  0.15601  Biso   1.000  H 
  H17      1.0000 0.62390  0.05077  0.35080  Biso   1.000  H 
  H18      1.0000 0.36377  0.56757  0.63408  Biso   1.000  H 
  H19      1.0000 0.28930  0.44988  0.16711  Biso   1.000  H 
  H20      1.0000 0.87808  0.95522  0.70338  Biso   1.000  H 
  H21      1.0000 0.27534  0.55984  0.65769  Biso   1.000  H 
  H22      1.0000 0.28974  0.94970  0.83728  Biso   1.000  H 
  H23      1.0000 0.37806  0.95551  0.79977  Biso   1.000  H 
  H24      1.0000 0.78952  0.44906  0.33509  Biso   1.000  H 
  H25      1.0000 0.50760  0.23859  0.27673  Biso   1.000  H 
  H26      1.0000 0.50894  0.73733  0.72195  Biso   1.000  H 
  H27      1.0000 0.71260  0.55787  0.66401  Biso   1.000  H 
  H28      1.0000 0.87784  0.45529  0.29789  Biso   1.000  H 
  H29      1.0000 0.00905  0.23751  0.22207  Biso   1.000  H 
  H30      1.0000 0.21224  0.05902  0.16854  Biso   1.000  H 
  H31      1.0000 0.71242  0.05864  0.33130  Biso   1.000  H 
  H32      1.0000 0.21267  0.55911  0.83325  Biso   1.000  H 
  H33      1.0000 0.12415  0.55103  0.85292  Biso   1.000  H 
  H34      1.0000 0.37764  0.45604  0.20343  Biso   1.000  H 
  H35      1.0000 0.62409  0.54941  0.64445  Biso   1.000  H 
  H36      1.0000 0.78978  0.94886  0.66551  Biso   1.000  H 
  O1       1.0000 0.04641  0.40155  0.84101  Biso   1.000  O 
  O2       1.0000 0.44549  0.93041  0.36398  Biso   1.000  O 
  O3       1.0000 0.54615  0.90130  0.33965  Biso   1.000  O 
  O4       1.0000 0.94569  0.43045  0.86332  Biso   1.000  O 
  O5       1.0000 0.99949  0.24445  0.10384  Biso   1.000  O 
  O6       1.0000 0.49962  0.74421  0.60347  Biso   1.000  O 
  O7       1.0000 0.05257  0.06299  0.85190  Biso   1.000  O 
  O8       1.0000 0.54636  0.40026  0.65879  Biso   1.000  O 
  O9       1.0000 0.45158  0.59405  0.33545  Biso   1.000  O 
  O10      1.0000 0.55261  0.06180  0.64777  Biso   1.000  O 
  O11      1.0000 0.99959  0.74483  0.89646  Biso   1.000  O 
  O12      1.0000 0.55234  0.56278  0.35068  Biso   1.000  O 
  O13      1.0000 0.44580  0.42999  0.63714  Biso   1.000  O 
  O14      1.0000 0.45189  0.09343  0.66539  Biso   1.000  O 
  O15      1.0000 0.94558  0.93014  0.13631  Biso   1.000  O 
  O16      1.0000 0.04611  0.90088  0.16006  Biso   1.000  O 
  O17      1.0000 0.95166  0.59361  0.16470  Biso   1.000  O 
  O18      1.0000 0.95185  0.09409  0.83500  Biso   1.000  O 
  O19      1.0000 0.49939  0.24468  0.39622  Biso   1.000  O 
  O20      1.0000 0.05235  0.56239  0.14929  Biso   1.000  O 
