data_image0
_cell_length_a       26.8465
_cell_length_b       6.65364
_cell_length_c       12.345
_cell_angle_alpha    89.9709
_cell_angle_beta     89.9902
_cell_angle_gamma    90.8404

_symmetry_space_group_name_H-M    "P 1"
_symmetry_int_tables_number       1

loop_
  _symmetry_equiv_pos_as_xyz
  'x, y, z'

loop_
  _atom_site_label
  _atom_site_occupancy
  _atom_site_fract_x
  _atom_site_fract_y
  _atom_site_fract_z
  _atom_site_thermal_displace_type
  _atom_site_B_iso_or_equiv
  _atom_site_type_symbol
  Al1      1.0000 0.00042  0.49823  0.00255  Biso   1.000  Al
  Al2      1.0000 0.50044  0.99624  0.50259  Biso   1.000  Al
  Al3      1.0000 0.00043  0.99822  0.99752  Biso   1.000  Al
  Al4      1.0000 0.50042  0.49621  0.49749  Biso   1.000  Al
  C1       1.0000 0.69251  0.57778  0.25860  Biso   1.000  C 
  C2       1.0000 0.65432  0.42920  0.65035  Biso   1.000  C 
  C3       1.0000 0.92719  0.74477  0.11554  Biso   1.000  C 
  C4       1.0000 0.72477  0.25273  0.72779  Biso   1.000  C 
  C5       1.0000 0.70179  0.92769  0.30825  Biso   1.000  C 
  C6       1.0000 0.62493  0.25349  0.65631  Biso   1.000  C 
  C7       1.0000 0.57317  0.25254  0.61268  Biso   1.000  C 
  C8       1.0000 0.22262  0.75127  0.23577  Biso   1.000  C 
  C9       1.0000 0.84904  0.42443  0.84352  Biso   1.000  C 
  C10      1.0000 0.79973  0.42528  0.80904  Biso   1.000  C 
  C11      1.0000 0.12314  0.75464  0.16213  Biso   1.000  C 
  C12      1.0000 0.34716  0.92170  0.35057  Biso   1.000  C 
  C13      1.0000 0.29774  0.92260  0.31698  Biso   1.000  C 
  C14      1.0000 0.42872  0.24269  0.61975  Biso   1.000  C 
  C15      1.0000 0.20395  0.42689  0.81566  Biso   1.000  C 
  C16      1.0000 0.15465  0.42943  0.85002  Biso   1.000  C 
  C17      1.0000 0.07173  0.75478  0.11675  Biso   1.000  C 
  C18      1.0000 0.85284  0.57342  0.20101  Biso   1.000  C 
  C19      1.0000 0.15286  0.92951  0.15662  Biso   1.000  C 
  C20      1.0000 0.20197  0.92713  0.19224  Biso   1.000  C 
  C21      1.0000 0.35485  0.07131  0.70759  Biso   1.000  C 
  C22      1.0000 0.64355  0.57756  0.29542  Biso   1.000  C 
  C23      1.0000 0.30589  0.07401  0.74423  Biso   1.000  C 
  C24      1.0000 0.14539  0.07778  0.80253  Biso   1.000  C 
  C25      1.0000 0.80374  0.57580  0.23667  Biso   1.000  C 
  C26      1.0000 0.65261  0.92901  0.34348  Biso   1.000  C 
  C27      1.0000 0.87523  0.74777  0.15809  Biso   1.000  C 
  C28      1.0000 0.19449  0.07679  0.76663  Biso   1.000  C 
  C29      1.0000 0.14327  0.57826  0.20490  Biso   1.000  C 
  C30      1.0000 0.37508  0.74568  0.34281  Biso   1.000  C 
  C31      1.0000 0.72275  0.75222  0.26503  Biso   1.000  C 
  C32      1.0000 0.64557  0.07753  0.69837  Biso   1.000  C 
  C33      1.0000 0.69464  0.07799  0.73445  Biso   1.000  C 
  C34      1.0000 0.62314  0.75352  0.33795  Biso   1.000  C 
  C35      1.0000 0.22486  0.25084  0.77301  Biso   1.000  C 
  C36      1.0000 0.77510  0.75089  0.22835  Biso   1.000  C 
  C37      1.0000 0.79785  0.92443  0.18406  Biso   1.000  C 
  C38      1.0000 0.12498  0.25449  0.84415  Biso   1.000  C 
  C39      1.0000 0.07318  0.25494  0.88745  Biso   1.000  C 
  C40      1.0000 0.27493  0.74922  0.27274  Biso   1.000  C 
  C41      1.0000 0.84727  0.92373  0.15036  Biso   1.000  C 
  C42      1.0000 0.37704  0.24541  0.66392  Biso   1.000  C 
  C43      1.0000 0.57168  0.75275  0.38315  Biso   1.000  C 
  C44      1.0000 0.30349  0.57391  0.26464  Biso   1.000  C 
  C45      1.0000 0.19217  0.57742  0.24207  Biso   1.000  C 
  C46      1.0000 0.29981  0.42238  0.69134  Biso   1.000  C 
  C47      1.0000 0.70361  0.42811  0.68488  Biso   1.000  C 
  C48      1.0000 0.87701  0.24846  0.83634  Biso   1.000  C 
  C49      1.0000 0.77714  0.25180  0.76444  Biso   1.000  C 
  C50      1.0000 0.42711  0.74290  0.38495  Biso   1.000  C 
  C51      1.0000 0.80586  0.07692  0.75631  Biso   1.000  C 
  C52      1.0000 0.27721  0.24904  0.73618  Biso   1.000  C 
  C53      1.0000 0.92866  0.24517  0.88055  Biso   1.000  C 
  C54      1.0000 0.34908  0.42136  0.65667  Biso   1.000  C 
  C55      1.0000 0.35262  0.57136  0.30017  Biso   1.000  C 
  C56      1.0000 0.85483  0.07434  0.79279  Biso   1.000  C 
  H1       1.0000 0.27800  0.55807  0.68099  Biso   1.000  H 
  H2       1.0000 0.48471  0.73875  0.63784  Biso   1.000  H 
  H3       1.0000 0.28971  0.93928  0.78127  Biso   1.000  H 
  H4       1.0000 0.37664  0.93475  0.71302  Biso   1.000  H 
  H5       1.0000 0.78743  0.44101  0.27336  Biso   1.000  H 
  H6       1.0000 0.48261  0.23895  0.36348  Biso   1.000  H 
  H7       1.0000 0.72655  0.56375  0.67590  Biso   1.000  H 
  H8       1.0000 0.13867  0.56516  0.88409  Biso   1.000  H 
  H9       1.0000 0.98244  0.24089  0.13645  Biso   1.000  H 
  H10      1.0000 0.22519  0.06203  0.18348  Biso   1.000  H 
  H11      1.0000 0.72482  0.06312  0.31705  Biso   1.000  H 
  H12      1.0000 0.22710  0.56198  0.82452  Biso   1.000  H 
  H13      1.0000 0.37436  0.43471  0.29456  Biso   1.000  H 
  H14      1.0000 0.63816  0.56438  0.61604  Biso   1.000  H 
  H15      1.0000 0.78969  0.94223  0.71931  Biso   1.000  H 
  H16      1.0000 0.87663  0.93781  0.78736  Biso   1.000  H 
  H17      1.0000 0.87465  0.43697  0.20677  Biso   1.000  H 
  H18      1.0000 0.28710  0.43905  0.22825  Biso   1.000  H 
  H19      1.0000 0.12206  0.94252  0.79842  Biso   1.000  H 
  H20      1.0000 0.63659  0.06410  0.37814  Biso   1.000  H 
  H21      1.0000 0.36620  0.55520  0.62083  Biso   1.000  H 
  H22      1.0000 0.86452  0.05776  0.11498  Biso   1.000  H 
  H23      1.0000 0.86615  0.55836  0.87924  Biso   1.000  H 
  H24      1.0000 0.70973  0.94182  0.77014  Biso   1.000  H 
  H25      1.0000 0.20687  0.44082  0.27808  Biso   1.000  H 
  H26      1.0000 0.11993  0.44301  0.20871  Biso   1.000  H 
  H27      1.0000 0.77791  0.56092  0.81934  Biso   1.000  H 
  H28      1.0000 0.62246  0.94168  0.70269  Biso   1.000  H 
  H29      1.0000 0.20942  0.93998  0.73137  Biso   1.000  H 
  H30      1.0000 0.13712  0.06494  0.12166  Biso   1.000  H 
  H31      1.0000 0.70745  0.44159  0.22268  Biso   1.000  H 
  H32      1.0000 0.36446  0.05575  0.38574  Biso   1.000  H 
  H33      1.0000 0.27600  0.05845  0.32748  Biso   1.000  H 
  H34      1.0000 0.98422  0.74113  0.86255  Biso   1.000  H 
  H35      1.0000 0.62039  0.44184  0.29145  Biso   1.000  H 
  H36      1.0000 0.77606  0.06012  0.17347  Biso   1.000  H 
  O1       1.0000 0.54981  0.58305  0.39573  Biso   1.000  O 
  O2       1.0000 0.44978  0.41214  0.60074  Biso   1.000  O 
  O3       1.0000 0.44776  0.07128  0.60175  Biso   1.000  O 
  O4       1.0000 0.94621  0.57320  0.09786  Biso   1.000  O 
  O5       1.0000 0.05375  0.92417  0.09107  Biso   1.000  O 
  O6       1.0000 0.94748  0.07352  0.89901  Biso   1.000  O 
  O7       1.0000 0.99962  0.74649  0.93348  Biso   1.000  O 
  O8       1.0000 0.94853  0.91412  0.09770  Biso   1.000  O 
  O9       1.0000 0.55124  0.08278  0.60100  Biso   1.000  O 
  O10      1.0000 0.44833  0.91233  0.40303  Biso   1.000  O 
  O11      1.0000 0.55472  0.42164  0.58816  Biso   1.000  O 
  O12      1.0000 0.05086  0.08580  0.89840  Biso   1.000  O 
  O13      1.0000 0.49974  0.74430  0.56653  Biso   1.000  O 
  O14      1.0000 0.99879  0.24635  0.06653  Biso   1.000  O 
  O15      1.0000 0.94991  0.41437  0.89913  Biso   1.000  O 
  O16      1.0000 0.55342  0.92188  0.40822  Biso   1.000  O 
  O17      1.0000 0.05504  0.42434  0.91244  Biso   1.000  O 
  O18      1.0000 0.49876  0.24444  0.43360  Biso   1.000  O 
  O19      1.0000 0.44631  0.57144  0.40206  Biso   1.000  O 
  O20      1.0000 0.04958  0.58557  0.10467  Biso   1.000  O 
