data_image0
_cell_length_a       25.9951
_cell_length_b       6.64684
_cell_length_c       14.3903
_cell_angle_alpha    90.0136
_cell_angle_beta     89.9832
_cell_angle_gamma    90.6554

_symmetry_space_group_name_H-M    "P 1"
_symmetry_int_tables_number       1

loop_
  _symmetry_equiv_pos_as_xyz
  'x, y, z'

loop_
  _atom_site_label
  _atom_site_occupancy
  _atom_site_fract_x
  _atom_site_fract_y
  _atom_site_fract_z
  _atom_site_thermal_displace_type
  _atom_site_B_iso_or_equiv
  _atom_site_type_symbol
  Al1      1.0000 0.00059  0.49672  0.00206  Biso   1.000  Al
  Al2      1.0000 0.50051  0.99859  0.50216  Biso   1.000  Al
  Al3      1.0000 0.00047  0.99668  0.99788  Biso   1.000  Al
  Al4      1.0000 0.50050  0.49866  0.49853  Biso   1.000  Al
  C1       1.0000 0.69212  0.57702  0.27025  Biso   1.000  C 
  C2       1.0000 0.65609  0.43036  0.64730  Biso   1.000  C 
  C3       1.0000 0.92630  0.74390  0.10355  Biso   1.000  C 
  C4       1.0000 0.72485  0.25260  0.72632  Biso   1.000  C 
  C5       1.0000 0.70356  0.92830  0.30924  Biso   1.000  C 
  C6       1.0000 0.62575  0.25458  0.64651  Biso   1.000  C 
  C7       1.0000 0.57433  0.25433  0.60088  Biso   1.000  C 
  C8       1.0000 0.22311  0.75071  0.23164  Biso   1.000  C 
  C9       1.0000 0.84677  0.42381  0.84875  Biso   1.000  C 
  C10      1.0000 0.79781  0.42481  0.80988  Biso   1.000  C 
  C11      1.0000 0.12455  0.75295  0.14958  Biso   1.000  C 
  C12      1.0000 0.34512  0.92357  0.35333  Biso   1.000  C 
  C13      1.0000 0.29601  0.92365  0.31506  Biso   1.000  C 
  C14      1.0000 0.42722  0.24592  0.60594  Biso   1.000  C 
  C15      1.0000 0.20513  0.42560  0.81468  Biso   1.000  C 
  C16      1.0000 0.15616  0.42731  0.85349  Biso   1.000  C 
  C17      1.0000 0.07352  0.75266  0.10252  Biso   1.000  C 
  C18      1.0000 0.85388  0.57225  0.18940  Biso   1.000  C 
  C19      1.0000 0.15505  0.92832  0.15052  Biso   1.000  C 
  C20      1.0000 0.20377  0.92640  0.19034  Biso   1.000  C 
  C21      1.0000 0.35533  0.07275  0.69248  Biso   1.000  C 
  C22      1.0000 0.64362  0.57745  0.31103  Biso   1.000  C 
  C23      1.0000 0.30674  0.07413  0.73281  Biso   1.000  C 
  C24      1.0000 0.14492  0.07535  0.81400  Biso   1.000  C 
  C25      1.0000 0.80516  0.57482  0.22923  Biso   1.000  C 
  C26      1.0000 0.65474  0.93034  0.34870  Biso   1.000  C 
  C27      1.0000 0.87468  0.74661  0.14861  Biso   1.000  C 
  C28      1.0000 0.19360  0.07523  0.77393  Biso   1.000  C 
  C29      1.0000 0.14342  0.57657  0.18996  Biso   1.000  C 
  C30      1.0000 0.37431  0.74742  0.35291  Biso   1.000  C 
  C31      1.0000 0.72325  0.75187  0.26914  Biso   1.000  C 
  C32      1.0000 0.64506  0.07787  0.68581  Biso   1.000  C 
  C33      1.0000 0.69373  0.07772  0.72583  Biso   1.000  C 
  C34      1.0000 0.62446  0.75442  0.35042  Biso   1.000  C 
  C35      1.0000 0.22478  0.24994  0.77382  Biso   1.000  C 
  C36      1.0000 0.77522  0.75010  0.22771  Biso   1.000  C 
  C37      1.0000 0.79633  0.92355  0.18557  Biso   1.000  C 
  C38      1.0000 0.12570  0.25185  0.85374  Biso   1.000  C 
  C39      1.0000 0.07424  0.25208  0.89924  Biso   1.000  C 
  C40      1.0000 0.27493  0.74936  0.27360  Biso   1.000  C 
  C41      1.0000 0.84548  0.92272  0.14743  Biso   1.000  C 
  C42      1.0000 0.37589  0.24794  0.65204  Biso   1.000  C 
  C43      1.0000 0.57339  0.75414  0.39740  Biso   1.000  C 
  C44      1.0000 0.30478  0.57383  0.27315  Biso   1.000  C 
  C45      1.0000 0.19181  0.57631  0.23112  Biso   1.000  C 
  C46      1.0000 0.29759  0.42358  0.69058  Biso   1.000  C 
  C47      1.0000 0.70507  0.42863  0.68605  Biso   1.000  C 
  C48      1.0000 0.87585  0.24738  0.84828  Biso   1.000  C 
  C49      1.0000 0.77679  0.25114  0.76777  Biso   1.000  C 
  C50      1.0000 0.42605  0.74563  0.39750  Biso   1.000  C 
  C51      1.0000 0.80667  0.07569  0.76674  Biso   1.000  C 
  C52      1.0000 0.27671  0.24919  0.73225  Biso   1.000  C 
  C53      1.0000 0.92710  0.24412  0.89460  Biso   1.000  C 
  C54      1.0000 0.34660  0.42384  0.65185  Biso   1.000  C 
  C55      1.0000 0.35347  0.57211  0.31303  Biso   1.000  C 
  C56      1.0000 0.85519  0.07302  0.80726  Biso   1.000  C 
  H1       1.0000 0.27448  0.55919  0.68653  Biso   1.000  H 
  H2       1.0000 0.48284  0.74291  0.61758  Biso   1.000  H 
  H3       1.0000 0.29203  0.93852  0.76676  Biso   1.000  H 
  H4       1.0000 0.37823  0.93643  0.69249  Biso   1.000  H 
  H5       1.0000 0.79028  0.44001  0.26362  Biso   1.000  H 
  H6       1.0000 0.48168  0.24281  0.38368  Biso   1.000  H 
  H7       1.0000 0.72899  0.56435  0.68308  Biso   1.000  H 
  H8       1.0000 0.14108  0.56289  0.88568  Biso   1.000  H 
  H9       1.0000 0.98127  0.24023  0.11627  Biso   1.000  H 
  H10      1.0000 0.22787  0.06162  0.18736  Biso   1.000  H 
  H11      1.0000 0.72749  0.06407  0.31166  Biso   1.000  H 
  H12      1.0000 0.22913  0.56105  0.81800  Biso   1.000  H 
  H13      1.0000 0.37628  0.43556  0.31286  Biso   1.000  H 
  H14      1.0000 0.64093  0.56622  0.61554  Biso   1.000  H 
  H15      1.0000 0.79187  0.94076  0.73233  Biso   1.000  H 
  H16      1.0000 0.87795  0.93634  0.80691  Biso   1.000  H 
  H17      1.0000 0.87668  0.43571  0.19023  Biso   1.000  H 
  H18      1.0000 0.28990  0.43823  0.23943  Biso   1.000  H 
  H19      1.0000 0.12091  0.93980  0.81457  Biso   1.000  H 
  H20      1.0000 0.63972  0.06650  0.38045  Biso   1.000  H 
  H21      1.0000 0.36237  0.55873  0.61894  Biso   1.000  H 
  H22      1.0000 0.86147  0.05693  0.11425  Biso   1.000  H 
  H23      1.0000 0.86266  0.55812  0.88199  Biso   1.000  H 
  H24      1.0000 0.70763  0.94097  0.75880  Biso   1.000  H 
  H25      1.0000 0.20535  0.43978  0.26479  Biso   1.000  H 
  H26      1.0000 0.11939  0.44111  0.18890  Biso   1.000  H 
  H27      1.0000 0.77484  0.56079  0.81418  Biso   1.000  H 
  H28      1.0000 0.62114  0.94213  0.68493  Biso   1.000  H 
  H29      1.0000 0.20742  0.93872  0.74059  Biso   1.000  H 
  H30      1.0000 0.14027  0.06392  0.11794  Biso   1.000  H 
  H31      1.0000 0.70590  0.43992  0.23738  Biso   1.000  H 
  H32      1.0000 0.36111  0.05849  0.38590  Biso   1.000  H 
  H33      1.0000 0.27303  0.05962  0.31909  Biso   1.000  H 
  H34      1.0000 0.98203  0.73980  0.88329  Biso   1.000  H 
  H35      1.0000 0.61973  0.44166  0.31259  Biso   1.000  H 
  H36      1.0000 0.77333  0.05938  0.18079  Biso   1.000  H 
  O1       1.0000 0.55157  0.58424  0.41135  Biso   1.000  O 
  O2       1.0000 0.44807  0.41576  0.58713  Biso   1.000  O 
  O3       1.0000 0.44620  0.07436  0.58735  Biso   1.000  O 
  O4       1.0000 0.94533  0.57216  0.08543  Biso   1.000  O 
  O5       1.0000 0.05568  0.92196  0.07791  Biso   1.000  O 
  O6       1.0000 0.94580  0.07216  0.91337  Biso   1.000  O 
  O7       1.0000 0.99936  0.74484  0.94285  Biso   1.000  O 
  O8       1.0000 0.94738  0.91356  0.08519  Biso   1.000  O 
  O9       1.0000 0.55239  0.08445  0.58757  Biso   1.000  O 
  O10      1.0000 0.44702  0.91557  0.41568  Biso   1.000  O 
  O11      1.0000 0.55612  0.42379  0.57745  Biso   1.000  O 
  O12      1.0000 0.05194  0.08261  0.91179  Biso   1.000  O 
  O13      1.0000 0.49950  0.74711  0.55739  Biso   1.000  O 
  O14      1.0000 0.99896  0.24492  0.05703  Biso   1.000  O 
  O15      1.0000 0.94817  0.41356  0.91339  Biso   1.000  O 
  O16      1.0000 0.55534  0.92360  0.42136  Biso   1.000  O 
  O17      1.0000 0.05631  0.42163  0.92332  Biso   1.000  O 
  O18      1.0000 0.49891  0.24701  0.44334  Biso   1.000  O 
  O19      1.0000 0.44531  0.57417  0.41529  Biso   1.000  O 
  O20      1.0000 0.05151  0.58286  0.08921  Biso   1.000  O 
