data_image0
_cell_length_a       24.9341
_cell_length_b       6.64819
_cell_length_c       16.4012
_cell_angle_alpha    89.9963
_cell_angle_beta     89.9983
_cell_angle_gamma    90.3988

_symmetry_space_group_name_H-M    "P 1"
_symmetry_int_tables_number       1

loop_
  _symmetry_equiv_pos_as_xyz
  'x, y, z'

loop_
  _atom_site_label
  _atom_site_occupancy
  _atom_site_fract_x
  _atom_site_fract_y
  _atom_site_fract_z
  _atom_site_thermal_displace_type
  _atom_site_B_iso_or_equiv
  _atom_site_type_symbol
  Al1      1.0000 0.00075  0.49651  0.00219  Biso   1.000  Al
  Al2      1.0000 0.50072  0.99717  0.50181  Biso   1.000  Al
  Al3      1.0000 0.00076  0.99655  0.99878  Biso   1.000  Al
  Al4      1.0000 0.50077  0.49714  0.49887  Biso   1.000  Al
  C1       1.0000 0.72344  0.75224  0.27108  Biso   1.000  C 
  C2       1.0000 0.64537  0.07580  0.67714  Biso   1.000  C 
  C3       1.0000 0.69328  0.07666  0.72048  Biso   1.000  C 
  C4       1.0000 0.62592  0.75234  0.35845  Biso   1.000  C 
  C5       1.0000 0.57543  0.75143  0.40701  Biso   1.000  C 
  C6       1.0000 0.22468  0.25112  0.77374  Biso   1.000  C 
  C7       1.0000 0.77488  0.75116  0.22645  Biso   1.000  C 
  C8       1.0000 0.79421  0.92496  0.18674  Biso   1.000  C 
  C9       1.0000 0.12711  0.25216  0.86105  Biso   1.000  C 
  C10      1.0000 0.07633  0.25170  0.90891  Biso   1.000  C 
  C11      1.0000 0.27500  0.75054  0.27409  Biso   1.000  C 
  C12      1.0000 0.84294  0.92420  0.14548  Biso   1.000  C 
  C13      1.0000 0.37421  0.24773  0.64273  Biso   1.000  C 
  C14      1.0000 0.19182  0.57633  0.22324  Biso   1.000  C 
  C15      1.0000 0.30613  0.57493  0.27876  Biso   1.000  C 
  C16      1.0000 0.35423  0.57290  0.32158  Biso   1.000  C 
  C17      1.0000 0.34377  0.42396  0.64746  Biso   1.000  C 
  C18      1.0000 0.92552  0.24513  0.90485  Biso   1.000  C 
  C19      1.0000 0.27597  0.25015  0.72869  Biso   1.000  C 
  C20      1.0000 0.80767  0.07622  0.77537  Biso   1.000  C 
  C21      1.0000 0.85566  0.07372  0.81845  Biso   1.000  C 
  C22      1.0000 0.77635  0.25148  0.77128  Biso   1.000  C 
  C23      1.0000 0.42461  0.74586  0.40644  Biso   1.000  C 
  C24      1.0000 0.87455  0.24814  0.85733  Biso   1.000  C 
  C25      1.0000 0.70632  0.42823  0.68831  Biso   1.000  C 
  C26      1.0000 0.29517  0.42430  0.68907  Biso   1.000  C 
  C27      1.0000 0.14403  0.57580  0.17958  Biso   1.000  C 
  C28      1.0000 0.37334  0.74800  0.35970  Biso   1.000  C 
  C29      1.0000 0.87338  0.74789  0.14126  Biso   1.000  C 
  C30      1.0000 0.42536  0.24571  0.59566  Biso   1.000  C 
  C31      1.0000 0.69167  0.57678  0.27705  Biso   1.000  C 
  C32      1.0000 0.65796  0.42897  0.64610  Biso   1.000  C 
  C33      1.0000 0.92464  0.74508  0.09450  Biso   1.000  C 
  C34      1.0000 0.72496  0.25232  0.72651  Biso   1.000  C 
  C35      1.0000 0.70492  0.92814  0.30942  Biso   1.000  C 
  C36      1.0000 0.62719  0.25231  0.63974  Biso   1.000  C 
  C37      1.0000 0.57635  0.25148  0.59200  Biso   1.000  C 
  C38      1.0000 0.22369  0.75154  0.22912  Biso   1.000  C 
  C39      1.0000 0.84412  0.42444  0.85285  Biso   1.000  C 
  C40      1.0000 0.79554  0.42524  0.81119  Biso   1.000  C 
  C41      1.0000 0.12619  0.75218  0.14171  Biso   1.000  C 
  C42      1.0000 0.34297  0.92438  0.35494  Biso   1.000  C 
  C43      1.0000 0.65668  0.92897  0.35191  Biso   1.000  C 
  C44      1.0000 0.29433  0.92482  0.31346  Biso   1.000  C 
  C45      1.0000 0.20631  0.42710  0.81221  Biso   1.000  C 
  C46      1.0000 0.15805  0.42839  0.85469  Biso   1.000  C 
  C47      1.0000 0.07555  0.75159  0.09349  Biso   1.000  C 
  C48      1.0000 0.85431  0.57334  0.17985  Biso   1.000  C 
  C49      1.0000 0.15715  0.92842  0.14791  Biso   1.000  C 
  C50      1.0000 0.20538  0.92732  0.19043  Biso   1.000  C 
  C51      1.0000 0.35522  0.07274  0.68110  Biso   1.000  C 
  C52      1.0000 0.64389  0.57596  0.32074  Biso   1.000  C 
  C53      1.0000 0.30720  0.07474  0.72412  Biso   1.000  C 
  C54      1.0000 0.19285  0.07586  0.77984  Biso   1.000  C 
  C55      1.0000 0.14503  0.07557  0.82343  Biso   1.000  C 
  C56      1.0000 0.80616  0.57580  0.22251  Biso   1.000  C 
  H1       1.0000 0.85753  0.05886  0.11444  Biso   1.000  H 
  H2       1.0000 0.85855  0.55902  0.88409  Biso   1.000  H 
  H3       1.0000 0.70600  0.93991  0.75148  Biso   1.000  H 
  H4       1.0000 0.62109  0.93937  0.67213  Biso   1.000  H 
  H5       1.0000 0.20430  0.43969  0.25455  Biso   1.000  H 
  H6       1.0000 0.11962  0.43972  0.17462  Biso   1.000  H 
  H7       1.0000 0.77139  0.56141  0.81111  Biso   1.000  H 
  H8       1.0000 0.61961  0.43957  0.32584  Biso   1.000  H 
  H9       1.0000 0.20535  0.93903  0.74870  Biso   1.000  H 
  H10      1.0000 0.14315  0.06424  0.11763  Biso   1.000  H 
  H11      1.0000 0.70425  0.44013  0.24584  Biso   1.000  H 
  H12      1.0000 0.35757  0.05941  0.38570  Biso   1.000  H 
  H13      1.0000 0.27027  0.06120  0.31303  Biso   1.000  H 
  H14      1.0000 0.12062  0.93949  0.82849  Biso   1.000  H 
  H15      1.0000 0.98070  0.74049  0.89876  Biso   1.000  H 
  H16      1.0000 0.77010  0.06118  0.18671  Biso   1.000  H 
  H17      1.0000 0.64255  0.06484  0.38200  Biso   1.000  H 
  H18      1.0000 0.35823  0.55891  0.61651  Biso   1.000  H 
  H19      1.0000 0.29287  0.43932  0.24700  Biso   1.000  H 
  H20      1.0000 0.87944  0.93706  0.82175  Biso   1.000  H 
  H21      1.0000 0.27104  0.56049  0.68942  Biso   1.000  H 
  H22      1.0000 0.29406  0.93928  0.75608  Biso   1.000  H 
  H23      1.0000 0.37898  0.93607  0.67746  Biso   1.000  H 
  H24      1.0000 0.79294  0.44076  0.25469  Biso   1.000  H 
  H25      1.0000 0.48037  0.24216  0.39865  Biso   1.000  H 
  H26      1.0000 0.48143  0.74213  0.60257  Biso   1.000  H 
  H27      1.0000 0.73074  0.56488  0.69010  Biso   1.000  H 
  H28      1.0000 0.87811  0.43671  0.17672  Biso   1.000  H 
  H29      1.0000 0.97986  0.24049  0.10189  Biso   1.000  H 
  H30      1.0000 0.22998  0.06352  0.19207  Biso   1.000  H 
  H31      1.0000 0.72941  0.06464  0.30759  Biso   1.000  H 
  H32      1.0000 0.23089  0.56337  0.81042  Biso   1.000  H 
  H33      1.0000 0.14404  0.56443  0.88478  Biso   1.000  H 
  H34      1.0000 0.37794  0.43614  0.32527  Biso   1.000  H 
  H35      1.0000 0.64370  0.56491  0.61619  Biso   1.000  H 
  H36      1.0000 0.79458  0.94119  0.74306  Biso   1.000  H 
  O1       1.0000 0.05857  0.42104  0.93248  Biso   1.000  O 
  O2       1.0000 0.44522  0.91583  0.42527  Biso   1.000  O 
  O3       1.0000 0.55737  0.92078  0.43002  Biso   1.000  O 
  O4       1.0000 0.94635  0.41467  0.92374  Biso   1.000  O 
  O5       1.0000 0.99893  0.24491  0.05044  Biso   1.000  O 
  O6       1.0000 0.49948  0.74571  0.55028  Biso   1.000  O 
  O7       1.0000 0.05428  0.08182  0.92302  Biso   1.000  O 
  O8       1.0000 0.55814  0.42088  0.56933  Biso   1.000  O 
  O9       1.0000 0.44391  0.57428  0.42453  Biso   1.000  O 
  O10      1.0000 0.55474  0.08128  0.57705  Biso   1.000  O 
  O11      1.0000 0.99939  0.74493  0.95051  Biso   1.000  O 
  O12      1.0000 0.55399  0.58116  0.42237  Biso   1.000  O 
  O13      1.0000 0.44592  0.41565  0.57668  Biso   1.000  O 
  O14      1.0000 0.44458  0.07411  0.57738  Biso   1.000  O 
  O15      1.0000 0.94559  0.91470  0.07600  Biso   1.000  O 
  O16      1.0000 0.05790  0.92089  0.06970  Biso   1.000  O 
  O17      1.0000 0.94355  0.57312  0.07601  Biso   1.000  O 
  O18      1.0000 0.94429  0.07316  0.92363  Biso   1.000  O 
  O19      1.0000 0.49900  0.24574  0.45046  Biso   1.000  O 
  O20      1.0000 0.05356  0.58169  0.07921  Biso   1.000  O 
