data_image0
_cell_length_a       27.3986
_cell_length_b       6.65513
_cell_length_c       10.5223
_cell_angle_alpha    90.0443
_cell_angle_beta     90.0164
_cell_angle_gamma    92.3542

_symmetry_space_group_name_H-M    "P 1"
_symmetry_int_tables_number       1

loop_
  _symmetry_equiv_pos_as_xyz
  'x, y, z'

loop_
  _atom_site_label
  _atom_site_occupancy
  _atom_site_fract_x
  _atom_site_fract_y
  _atom_site_fract_z
  _atom_site_thermal_displace_type
  _atom_site_B_iso_or_equiv
  _atom_site_type_symbol
  Al1      1.0000 0.00030  0.49939  0.00225  Biso   1.000  Al
  Al2      1.0000 0.50024  0.99656  0.50225  Biso   1.000  Al
  Al3      1.0000 0.00028  0.99935  0.99614  Biso   1.000  Al
  Al4      1.0000 0.50025  0.49639  0.49545  Biso   1.000  Al
  C1       1.0000 0.69162  0.57852  0.24720  Biso   1.000  C 
  C2       1.0000 0.65475  0.43365  0.65360  Biso   1.000  C 
  C3       1.0000 0.92771  0.73772  0.13011  Biso   1.000  C 
  C4       1.0000 0.72456  0.25250  0.72929  Biso   1.000  C 
  C5       1.0000 0.70227  0.92815  0.30745  Biso   1.000  C 
  C6       1.0000 0.62435  0.26027  0.66770  Biso   1.000  C 
  C7       1.0000 0.57235  0.26184  0.62629  Biso   1.000  C 
  C8       1.0000 0.22233  0.75284  0.23915  Biso   1.000  C 
  C9       1.0000 0.85203  0.41964  0.83527  Biso   1.000  C 
  C10      1.0000 0.80251  0.42200  0.80674  Biso   1.000  C 
  C11      1.0000 0.12226  0.76221  0.17655  Biso   1.000  C 
  C12      1.0000 0.35012  0.91705  0.34416  Biso   1.000  C 
  C13      1.0000 0.30054  0.92039  0.31650  Biso   1.000  C 
  C14      1.0000 0.42959  0.23536  0.63640  Biso   1.000  C 
  C15      1.0000 0.20480  0.42960  0.82015  Biso   1.000  C 
  C16      1.0000 0.15531  0.43469  0.84844  Biso   1.000  C 
  C17      1.0000 0.07053  0.76409  0.13301  Biso   1.000  C 
  C18      1.0000 0.85063  0.56729  0.21508  Biso   1.000  C 
  C19      1.0000 0.15275  0.93552  0.16356  Biso   1.000  C 
  C20      1.0000 0.20209  0.93021  0.19364  Biso   1.000  C 
  C21      1.0000 0.35294  0.06695  0.72551  Biso   1.000  C 
  C22      1.0000 0.64236  0.58178  0.27869  Biso   1.000  C 
  C23      1.0000 0.30383  0.07193  0.75821  Biso   1.000  C 
  C24      1.0000 0.14482  0.08386  0.78928  Biso   1.000  C 
  C25      1.0000 0.80134  0.57115  0.24605  Biso   1.000  C 
  C26      1.0000 0.65290  0.93289  0.33718  Biso   1.000  C 
  C27      1.0000 0.87560  0.74142  0.17051  Biso   1.000  C 
  C28      1.0000 0.19421  0.08026  0.75928  Biso   1.000  C 
  C29      1.0000 0.14193  0.58444  0.22152  Biso   1.000  C 
  C30      1.0000 0.37537  0.73944  0.32884  Biso   1.000  C 
  C31      1.0000 0.72265  0.75115  0.26170  Biso   1.000  C 
  C32      1.0000 0.64424  0.08306  0.71287  Biso   1.000  C 
  C33      1.0000 0.69354  0.07999  0.74414  Biso   1.000  C 
  C34      1.0000 0.62252  0.75932  0.32362  Biso   1.000  C 
  C35      1.0000 0.22525  0.25266  0.77453  Biso   1.000  C 
  C36      1.0000 0.77517  0.74738  0.23055  Biso   1.000  C 
  C37      1.0000 0.80055  0.92058  0.18433  Biso   1.000  C 
  C38      1.0000 0.12486  0.26159  0.83353  Biso   1.000  C 
  C39      1.0000 0.07265  0.26386  0.87304  Biso   1.000  C 
  C40      1.0000 0.27486  0.74794  0.27000  Biso   1.000  C 
  C41      1.0000 0.85009  0.91852  0.15608  Biso   1.000  C 
  C42      1.0000 0.37785  0.24041  0.67974  Biso   1.000  C 
  C43      1.0000 0.57068  0.76113  0.36615  Biso   1.000  C 
  C44      1.0000 0.30077  0.57117  0.25366  Biso   1.000  C 
  C45      1.0000 0.19116  0.58062  0.25336  Biso   1.000  C 
  C46      1.0000 0.30313  0.42130  0.69635  Biso   1.000  C 
  C47      1.0000 0.70415  0.42909  0.68316  Biso   1.000  C 
  C48      1.0000 0.87747  0.24228  0.82112  Biso   1.000  C 
  C49      1.0000 0.77708  0.24878  0.76048  Biso   1.000  C 
  C50      1.0000 0.42757  0.73477  0.36838  Biso   1.000  C 
  C51      1.0000 0.80320  0.07230  0.74515  Biso   1.000  C 
  C52      1.0000 0.27776  0.24856  0.74325  Biso   1.000  C 
  C53      1.0000 0.92946  0.23793  0.86254  Biso   1.000  C 
  C54      1.0000 0.35251  0.41814  0.66638  Biso   1.000  C 
  C55      1.0000 0.35011  0.56600  0.28406  Biso   1.000  C 
  C56      1.0000 0.85246  0.06818  0.77641  Biso   1.000  C 
  H1       1.0000 0.28353  0.55827  0.67989  Biso   1.000  H 
  H2       1.0000 0.48539  0.73684  0.66133  Biso   1.000  H 
  H3       1.0000 0.28536  0.93765  0.79757  Biso   1.000  H 
  H4       1.0000 0.37266  0.92896  0.73566  Biso   1.000  H 
  H5       1.0000 0.78285  0.43647  0.28479  Biso   1.000  H 
  H6       1.0000 0.48290  0.23608  0.33800  Biso   1.000  H 
  H7       1.0000 0.72766  0.56291  0.66711  Biso   1.000  H 
  H8       1.0000 0.13971  0.57107  0.88517  Biso   1.000  H 
  H9       1.0000 0.98318  0.24009  0.16016  Biso   1.000  H 
  H10      1.0000 0.22571  0.06389  0.17814  Biso   1.000  H 
  H11      1.0000 0.72578  0.06209  0.32327  Biso   1.000  H 
  H12      1.0000 0.22831  0.56334  0.83663  Biso   1.000  H 
  H13      1.0000 0.36976  0.42807  0.27251  Biso   1.000  H 
  H14      1.0000 0.63924  0.56974  0.61627  Biso   1.000  H 
  H15      1.0000 0.78466  0.93761  0.70638  Biso   1.000  H 
  H16      1.0000 0.87226  0.93042  0.76581  Biso   1.000  H 
  H17      1.0000 0.87050  0.42979  0.22592  Biso   1.000  H 
  H18      1.0000 0.28203  0.43716  0.21465  Biso   1.000  H 
  H19      1.0000 0.12097  0.94971  0.77869  Biso   1.000  H 
  H20      1.0000 0.63740  0.06920  0.37430  Biso   1.000  H 
  H21      1.0000 0.37179  0.55138  0.62839  Biso   1.000  H 
  H22      1.0000 0.86940  0.05234  0.11898  Biso   1.000  H 
  H23      1.0000 0.87138  0.55339  0.87247  Biso   1.000  H 
  H24      1.0000 0.70816  0.94261  0.78249  Biso   1.000  H 
  H25      1.0000 0.20567  0.44280  0.29139  Biso   1.000  H 
  H26      1.0000 0.11804  0.45020  0.23080  Biso   1.000  H 
  H27      1.0000 0.78286  0.55875  0.82363  Biso   1.000  H 
  H28      1.0000 0.62041  0.94880  0.72301  Biso   1.000  H 
  H29      1.0000 0.20891  0.94263  0.72140  Biso   1.000  H 
  H30      1.0000 0.13737  0.07202  0.12647  Biso   1.000  H 
  H31      1.0000 0.70625  0.44086  0.20913  Biso   1.000  H 
  H32      1.0000 0.36967  0.05029  0.38137  Biso   1.000  H 
  H33      1.0000 0.28106  0.05733  0.33413  Biso   1.000  H 
  H34      1.0000 0.98557  0.73997  0.83658  Biso   1.000  H 
  H35      1.0000 0.61854  0.44737  0.26900  Biso   1.000  H 
  H36      1.0000 0.78086  0.05718  0.16741  Biso   1.000  H 
  O1       1.0000 0.54675  0.59302  0.37281  Biso   1.000  O 
  O2       1.0000 0.45270  0.40389  0.62090  Biso   1.000  O 
  O3       1.0000 0.44669  0.06342  0.61385  Biso   1.000  O 
  O4       1.0000 0.94524  0.56623  0.10871  Biso   1.000  O 
  O5       1.0000 0.05389  0.93317  0.10263  Biso   1.000  O 
  O6       1.0000 0.94678  0.06621  0.88435  Biso   1.000  O 
  O7       1.0000 0.99983  0.74738  0.92079  Biso   1.000  O 
  O8       1.0000 0.95070  0.90681  0.11599  Biso   1.000  O 
  O9       1.0000 0.54841  0.09362  0.62073  Biso   1.000  O 
  O10      1.0000 0.45076  0.90357  0.38210  Biso   1.000  O 
  O11      1.0000 0.55556  0.43068  0.59604  Biso   1.000  O 
  O12      1.0000 0.04865  0.09579  0.87817  Biso   1.000  O 
  O13      1.0000 0.49971  0.74454  0.57722  Biso   1.000  O 
  O14      1.0000 0.99856  0.24738  0.07732  Biso   1.000  O 
  O15      1.0000 0.95257  0.40669  0.87741  Biso   1.000  O 
  O16      1.0000 0.55402  0.93026  0.39647  Biso   1.000  O 
  O17      1.0000 0.05573  0.43306  0.90211  Biso   1.000  O 
  O18      1.0000 0.49849  0.24421  0.42058  Biso   1.000  O 
  O19      1.0000 0.44501  0.56299  0.38940  Biso   1.000  O 
  O20      1.0000 0.04671  0.59585  0.12546  Biso   1.000  O 
