data_image0
_cell_length_a       27.8889
_cell_length_b       6.64615
_cell_length_c       6.66195
_cell_angle_alpha    98.7642
_cell_angle_beta     87.5436
_cell_angle_gamma    84.5151

_symmetry_space_group_name_H-M    "P 1"
_symmetry_int_tables_number       1

loop_
  _symmetry_equiv_pos_as_xyz
  'x, y, z'

loop_
  _atom_site_label
  _atom_site_occupancy
  _atom_site_fract_x
  _atom_site_fract_y
  _atom_site_fract_z
  _atom_site_thermal_displace_type
  _atom_site_B_iso_or_equiv
  _atom_site_type_symbol
  Al1      1.0000 0.99909  0.49661  0.00995  Biso   1.000  Al
  Al2      1.0000 0.49918  0.99849  0.50269  Biso   1.000  Al
  Al3      1.0000 0.99937  0.99611  0.00284  Biso   1.000  Al
  Al4      1.0000 0.49937  0.49792  0.49588  Biso   1.000  Al
  C1       1.0000 0.72262  0.74258  0.24254  Biso   1.000  C 
  C2       1.0000 0.64993  0.08199  0.78098  Biso   1.000  C 
  C3       1.0000 0.69967  0.08133  0.79002  Biso   1.000  C 
  C4       1.0000 0.62268  0.70211  0.24112  Biso   1.000  C 
  C5       1.0000 0.57006  0.69011  0.27948  Biso   1.000  C 
  C6       1.0000 0.22323  0.24193  0.74950  Biso   1.000  C 
  C7       1.0000 0.77470  0.76469  0.25227  Biso   1.000  C 
  C8       1.0000 0.79362  0.94099  0.20251  Biso   1.000  C 
  C9       1.0000 0.12325  0.20080  0.75085  Biso   1.000  C 
  C10      1.0000 0.07061  0.18877  0.78935  Biso   1.000  C 
  C11      1.0000 0.27575  0.74691  0.24987  Biso   1.000  C 
  C12      1.0000 0.84276  0.95999  0.20419  Biso   1.000  C 
  C13      1.0000 0.37549  0.30256  0.75166  Biso   1.000  C 
  C14      1.0000 0.19927  0.58181  0.29698  Biso   1.000  C 
  C15      1.0000 0.30651  0.56281  0.21877  Biso   1.000  C 
  C16      1.0000 0.35615  0.56357  0.22927  Biso   1.000  C 
  C17      1.0000 0.34307  0.46092  0.70507  Biso   1.000  C 
  C18      1.0000 0.92907  0.24870  0.81506  Biso   1.000  C 
  C19      1.0000 0.27535  0.26463  0.75697  Biso   1.000  C 
  C20      1.0000 0.80707  0.06067  0.71546  Biso   1.000  C 
  C21      1.0000 0.85669  0.06082  0.72857  Biso   1.000  C 
  C22      1.0000 0.77643  0.24510  0.74494  Biso   1.000  C 
  C23      1.0000 0.42858  0.75178  0.31189  Biso   1.000  C 
  C24      1.0000 0.87731  0.24588  0.76956  Biso   1.000  C 
  C25      1.0000 0.69499  0.41759  0.69291  Biso   1.000  C 
  C26      1.0000 0.29395  0.44107  0.70583  Biso   1.000  C 
  C27      1.0000 0.14954  0.58177  0.28901  Biso   1.000  C 
  C28      1.0000 0.37668  0.74891  0.26920  Biso   1.000  C 
  C29      1.0000 0.87481  0.80108  0.25204  Biso   1.000  C 
  C30      1.0000 0.42836  0.30869  0.71429  Biso   1.000  C 
  C31      1.0000 0.70539  0.54831  0.21173  Biso   1.000  C 
  C32      1.0000 0.64516  0.42139  0.68953  Biso   1.000  C 
  C33      1.0000 0.92776  0.80679  0.21755  Biso   1.000  C 
  C34      1.0000 0.72345  0.24718  0.74173  Biso   1.000  C 
  C35      1.0000 0.68851  0.91604  0.26464  Biso   1.000  C 
  C36      1.0000 0.62219  0.25175  0.72898  Biso   1.000  C 
  C37      1.0000 0.57015  0.24644  0.68909  Biso   1.000  C 
  C38      1.0000 0.22278  0.74834  0.24873  Biso   1.000  C 
  C39      1.0000 0.84733  0.43078  0.79234  Biso   1.000  C 
  C40      1.0000 0.79779  0.42998  0.78127  Biso   1.000  C 
  C41      1.0000 0.12156  0.75154  0.23831  Biso   1.000  C 
  C42      1.0000 0.34657  0.93357  0.29390  Biso   1.000  C 
  C43      1.0000 0.63945  0.89628  0.26110  Biso   1.000  C 
  C44      1.0000 0.29699  0.93207  0.28534  Biso   1.000  C 
  C45      1.0000 0.18903  0.41512  0.77184  Biso   1.000  C 
  C46      1.0000 0.13997  0.39505  0.76969  Biso   1.000  C 
  C47      1.0000 0.06954  0.74558  0.19875  Biso   1.000  C 
  C48      1.0000 0.85642  0.62674  0.30731  Biso   1.000  C 
  C49      1.0000 0.14427  0.92187  0.19912  Biso   1.000  C 
  C50      1.0000 0.19408  0.91875  0.20129  Biso   1.000  C 
  C51      1.0000 0.35745  0.12806  0.80828  Biso   1.000  C 
  C52      1.0000 0.65624  0.52792  0.21355  Biso   1.000  C 
  C53      1.0000 0.30813  0.11068  0.81287  Biso   1.000  C 
  C54      1.0000 0.20604  0.04752  0.72025  Biso   1.000  C 
  C55      1.0000 0.15689  0.02684  0.72339  Biso   1.000  C 
  C56      1.0000 0.80710  0.61008  0.30932  Biso   1.000  C 
  H1       1.0000 0.85721  0.09478  0.16115  Biso   1.000  H 
  H2       1.0000 0.86331  0.57427  0.82716  Biso   1.000  H 
  H3       1.0000 0.72039  0.95006  0.83582  Biso   1.000  H 
  H4       1.0000 0.63213  0.95058  0.81337  Biso   1.000  H 
  H5       1.0000 0.22023  0.45054  0.34168  Biso   1.000  H 
  H6       1.0000 0.13193  0.44976  0.32105  Biso   1.000  H 
  H7       1.0000 0.77504  0.57516  0.80939  Biso   1.000  H 
  H8       1.0000 0.64329  0.37705  0.19524  Biso   1.000  H 
  H9       1.0000 0.23173  0.91068  0.69471  Biso   1.000  H 
  H10      1.0000 0.12242  0.05270  0.15857  Biso   1.000  H 
  H11      1.0000 0.73103  0.41136  0.18614  Biso   1.000  H 
  H12      1.0000 0.36249  0.07729  0.32810  Biso   1.000  H 
  H13      1.0000 0.27414  0.07693  0.31478  Biso   1.000  H 
  H14      1.0000 0.14400  0.87588  0.70589  Biso   1.000  H 
  H15      1.0000 0.99716  0.70256  0.73513  Biso   1.000  H 
  H16      1.0000 0.76973  0.06222  0.15495  Biso   1.000  H 
  H17      1.0000 0.61320  0.03104  0.28290  Biso   1.000  H 
  H18      1.0000 0.35718  0.59599  0.66099  Biso   1.000  H 
  H19      1.0000 0.29144  0.41702  0.18450  Biso   1.000  H 
  H20      1.0000 0.88003  0.91747  0.71079  Biso   1.000  H 
  H21      1.0000 0.26977  0.56182  0.65905  Biso   1.000  H 
  H22      1.0000 0.29493  0.97478  0.85958  Biso   1.000  H 
  H23      1.0000 0.38270  0.00504  0.84467  Biso   1.000  H 
  H24      1.0000 0.79357  0.47433  0.35495  Biso   1.000  H 
  H25      1.0000 0.49685  0.20442  0.22824  Biso   1.000  H 
  H26      1.0000 0.51069  0.77760  0.76256  Biso   1.000  H 
  H27      1.0000 0.71210  0.54730  0.65159  Biso   1.000  H 
  H28      1.0000 0.88141  0.50335  0.34471  Biso   1.000  H 
  H29      1.0000 0.00963  0.27596  0.27082  Biso   1.000  H 
  H30      1.0000 0.21101  0.04883  0.15985  Biso   1.000  H 
  H31      1.0000 0.70039  0.06874  0.29358  Biso   1.000  H 
  H32      1.0000 0.20085  0.56795  0.79972  Biso   1.000  H 
  H33      1.0000 0.11368  0.52970  0.79141  Biso   1.000  H 
  H34      1.0000 0.37964  0.42055  0.21037  Biso   1.000  H 
  H35      1.0000 0.62353  0.55241  0.64819  Biso   1.000  H 
  H36      1.0000 0.79195  0.91506  0.68028  Biso   1.000  H 
  O1       1.0000 0.04275  0.35369  0.79333  Biso   1.000  O 
  O2       1.0000 0.44357  0.92695  0.35981  Biso   1.000  O 
  O3       1.0000 0.54219  0.85509  0.28380  Biso   1.000  O 
  O4       1.0000 0.94395  0.42395  0.86407  Biso   1.000  O 
  O5       1.0000 0.99959  0.26342  0.13240  Biso   1.000  O 
  O6       1.0000 0.50002  0.76508  0.62511  Biso   1.000  O 
  O7       1.0000 0.05669  0.02124  0.82931  Biso   1.000  O 
  O8       1.0000 0.54500  0.41616  0.68446  Biso   1.000  O 
  O9       1.0000 0.45411  0.58103  0.30820  Biso   1.000  O 
  O10      1.0000 0.55487  0.07044  0.65031  Biso   1.000  O 
  O11      1.0000 0.99991  0.72659  0.88106  Biso   1.000  O 
  O12      1.0000 0.55620  0.52252  0.31954  Biso   1.000  O 
  O13      1.0000 0.44292  0.47268  0.66886  Biso   1.000  O 
  O14      1.0000 0.45575  0.14377  0.71817  Biso   1.000  O 
  O15      1.0000 0.94253  0.97072  0.17296  Biso   1.000  O 
  O16      1.0000 0.04430  0.91509  0.19392  Biso   1.000  O 
  O17      1.0000 0.95500  0.64182  0.22285  Biso   1.000  O 
  O18      1.0000 0.95458  0.07807  0.81246  Biso   1.000  O 
  O19      1.0000 0.49957  0.22866  0.37420  Biso   1.000  O 
  O20      1.0000 0.05433  0.56947  0.16018  Biso   1.000  O 
