data_image0
_cell_length_a       27.9223
_cell_length_b       6.69393
_cell_length_c       7.63075
_cell_angle_alpha    90.6311
_cell_angle_beta     89.8436
_cell_angle_gamma    87.2872

_symmetry_space_group_name_H-M    "P 1"
_symmetry_int_tables_number       1

loop_
  _symmetry_equiv_pos_as_xyz
  'x, y, z'

loop_
  _atom_site_label
  _atom_site_occupancy
  _atom_site_fract_x
  _atom_site_fract_y
  _atom_site_fract_z
  _atom_site_thermal_displace_type
  _atom_site_B_iso_or_equiv
  _atom_site_type_symbol
  Al1      1.0000 0.99902  0.49561  0.00402  Biso   1.000  Al
  Al2      1.0000 0.49897  0.99674  0.50353  Biso   1.000  Al
  Al3      1.0000 0.99902  0.99548  0.99627  Biso   1.000  Al
  Al4      1.0000 0.49902  0.49670  0.49600  Biso   1.000  Al
  C1       1.0000 0.72256  0.74820  0.25248  Biso   1.000  C 
  C2       1.0000 0.64923  0.06968  0.76734  Biso   1.000  C 
  C3       1.0000 0.69885  0.07426  0.78196  Biso   1.000  C 
  C4       1.0000 0.62171  0.73774  0.27758  Biso   1.000  C 
  C5       1.0000 0.56948  0.73178  0.31869  Biso   1.000  C 
  C6       1.0000 0.22305  0.24771  0.75714  Biso   1.000  C 
  C7       1.0000 0.77539  0.75383  0.24593  Biso   1.000  C 
  C8       1.0000 0.79736  0.92803  0.19183  Biso   1.000  C 
  C9       1.0000 0.12219  0.23636  0.78114  Biso   1.000  C 
  C10      1.0000 0.06990  0.23035  0.82097  Biso   1.000  C 
  C11      1.0000 0.27534  0.75244  0.25550  Biso   1.000  C 
  C12      1.0000 0.84694  0.93389  0.18017  Biso   1.000  C 
  C13      1.0000 0.37660  0.26516  0.72184  Biso   1.000  C 
  C14      1.0000 0.19838  0.57337  0.28585  Biso   1.000  C 
  C15      1.0000 0.30495  0.58277  0.21143  Biso   1.000  C 
  C16      1.0000 0.35459  0.58599  0.22659  Biso   1.000  C 
  C17      1.0000 0.34724  0.43506  0.68400  Biso   1.000  C 
  C18      1.0000 0.92870  0.25960  0.82326  Biso   1.000  C 
  C19      1.0000 0.27586  0.25411  0.75037  Biso   1.000  C 
  C20      1.0000 0.80539  0.08264  0.70812  Biso   1.000  C 
  C21      1.0000 0.85501  0.08537  0.72405  Biso   1.000  C 
  C22      1.0000 0.77582  0.25286  0.75094  Biso   1.000  C 
  C23      1.0000 0.42831  0.76065  0.32481  Biso   1.000  C 
  C24      1.0000 0.87657  0.26001  0.78016  Biso   1.000  C 
  C25      1.0000 0.69524  0.42139  0.69728  Biso   1.000  C 
  C26      1.0000 0.29767  0.42877  0.69646  Biso   1.000  C 
  C27      1.0000 0.14877  0.56864  0.27063  Biso   1.000  C 
  C28      1.0000 0.37610  0.76062  0.28305  Biso   1.000  C 
  C29      1.0000 0.87618  0.76399  0.21908  Biso   1.000  C 
  C30      1.0000 0.42878  0.26496  0.67856  Biso   1.000  C 
  C31      1.0000 0.69897  0.57070  0.21666  Biso   1.000  C 
  C32      1.0000 0.64561  0.41854  0.68652  Biso   1.000  C 
  C33      1.0000 0.92844  0.76360  0.17700  Biso   1.000  C 
  C34      1.0000 0.72298  0.24894  0.74351  Biso   1.000  C 
  C35      1.0000 0.69431  0.92174  0.29542  Biso   1.000  C 
  C36      1.0000 0.62212  0.24159  0.71779  Biso   1.000  C 
  C37      1.0000 0.56991  0.23587  0.67735  Biso   1.000  C 
  C38      1.0000 0.22250  0.74832  0.24819  Biso   1.000  C 
  C39      1.0000 0.84758  0.43275  0.81583  Biso   1.000  C 
  C40      1.0000 0.79802  0.42850  0.80291  Biso   1.000  C 
  C41      1.0000 0.12168  0.74069  0.22132  Biso   1.000  C 
  C42      1.0000 0.34705  0.93272  0.32031  Biso   1.000  C 
  C43      1.0000 0.64468  0.91722  0.30587  Biso   1.000  C 
  C44      1.0000 0.29748  0.92794  0.30818  Biso   1.000  C 
  C45      1.0000 0.19467  0.42097  0.79993  Biso   1.000  C 
  C46      1.0000 0.14506  0.41600  0.80983  Biso   1.000  C 
  C47      1.0000 0.06954  0.73489  0.17972  Biso   1.000  C 
  C48      1.0000 0.85483  0.59087  0.27713  Biso   1.000  C 
  C49      1.0000 0.14514  0.91794  0.19112  Biso   1.000  C 
  C50      1.0000 0.19476  0.92094  0.20241  Biso   1.000  C 
  C51      1.0000 0.35540  0.09171  0.77991  Biso   1.000  C 
  C52      1.0000 0.64935  0.56465  0.23092  Biso   1.000  C 
  C53      1.0000 0.30578  0.08719  0.79569  Biso   1.000  C 
  C54      1.0000 0.19957  0.06992  0.72127  Biso   1.000  C 
  C55      1.0000 0.14995  0.06344  0.73503  Biso   1.000  C 
  C56      1.0000 0.80518  0.58677  0.29202  Biso   1.000  C 
  H1       1.0000 0.86364  0.06737  0.13396  Biso   1.000  H 
  H2       1.0000 0.86442  0.56748  0.86065  Biso   1.000  H 
  H3       1.0000 0.71935  0.94079  0.82457  Biso   1.000  H 
  H4       1.0000 0.63100  0.93254  0.79302  Biso   1.000  H 
  H5       1.0000 0.21889  0.43979  0.32808  Biso   1.000  H 
  H6       1.0000 0.13056  0.43126  0.29556  Biso   1.000  H 
  H7       1.0000 0.77602  0.56122  0.84019  Biso   1.000  H 
  H8       1.0000 0.63155  0.42546  0.20735  Biso   1.000  H 
  H9       1.0000 0.22060  0.93549  0.68144  Biso   1.000  H 
  H10      1.0000 0.12398  0.05052  0.15143  Biso   1.000  H 
  H11      1.0000 0.71993  0.43616  0.17662  Biso   1.000  H 
  H12      1.0000 0.36386  0.06734  0.36557  Biso   1.000  H 
  H13      1.0000 0.27543  0.06015  0.34643  Biso   1.000  H 
  H14      1.0000 0.13222  0.92409  0.71137  Biso   1.000  H 
  H15      1.0000 0.00641  0.73527  0.76910  Biso   1.000  H 
  H16      1.0000 0.77519  0.05815  0.15215  Biso   1.000  H 
  H17      1.0000 0.62309  0.05068  0.34330  Biso   1.000  H 
  H18      1.0000 0.36382  0.56880  0.63778  Biso   1.000  H 
  H19      1.0000 0.28885  0.44699  0.16428  Biso   1.000  H 
  H20      1.0000 0.87757  0.95152  0.69551  Biso   1.000  H 
  H21      1.0000 0.27541  0.55884  0.65731  Biso   1.000  H 
  H22      1.0000 0.28992  0.95241  0.84399  Biso   1.000  H 
  H23      1.0000 0.37827  0.96014  0.81006  Biso   1.000  H 
  H24      1.0000 0.78920  0.45232  0.34048  Biso   1.000  H 
  H25      1.0000 0.50527  0.23678  0.26817  Biso   1.000  H 
  H26      1.0000 0.50797  0.74181  0.72959  Biso   1.000  H 
  H27      1.0000 0.71294  0.55751  0.66320  Biso   1.000  H 
  H28      1.0000 0.87760  0.45926  0.30809  Biso   1.000  H 
  H29      1.0000 0.00757  0.24053  0.23011  Biso   1.000  H 
  H30      1.0000 0.21247  0.05719  0.16883  Biso   1.000  H 
  H31      1.0000 0.71159  0.06018  0.32742  Biso   1.000  H 
  H32      1.0000 0.21183  0.55962  0.83215  Biso   1.000  H 
  H33      1.0000 0.12337  0.54925  0.84708  Biso   1.000  H 
  H34      1.0000 0.37722  0.45262  0.19708  Biso   1.000  H 
  H35      1.0000 0.62446  0.55101  0.64656  Biso   1.000  H 
  H36      1.0000 0.78923  0.94677  0.66146  Biso   1.000  H 
  O1       1.0000 0.04636  0.39782  0.83536  Biso   1.000  O 
  O2       1.0000 0.44565  0.92900  0.35969  Biso   1.000  O 
  O3       1.0000 0.54597  0.89923  0.33363  Biso   1.000  O 
  O4       1.0000 0.94603  0.42783  0.85863  Biso   1.000  O 
  O5       1.0000 0.99954  0.24526  0.10682  Biso   1.000  O 
  O6       1.0000 0.49972  0.74646  0.60648  Biso   1.000  O 
  O7       1.0000 0.05275  0.05971  0.84698  Biso   1.000  O 
  O8       1.0000 0.54660  0.40336  0.66260  Biso   1.000  O 
  O9       1.0000 0.45161  0.59217  0.33123  Biso   1.000  O 
  O10      1.0000 0.55263  0.06489  0.65133  Biso   1.000  O 
  O11      1.0000 0.99967  0.74270  0.89359  Biso   1.000  O 
  O12      1.0000 0.55240  0.56113  0.34520  Biso   1.000  O 
  O13      1.0000 0.44603  0.43253  0.64314  Biso   1.000  O 
  O14      1.0000 0.45213  0.09638  0.67133  Biso   1.000  O 
  O15      1.0000 0.94576  0.93110  0.14185  Biso   1.000  O 
  O16      1.0000 0.04622  0.90228  0.16450  Biso   1.000  O 
  O17      1.0000 0.95178  0.59499  0.17041  Biso   1.000  O 
  O18      1.0000 0.95193  0.09098  0.83031  Biso   1.000  O 
  O19      1.0000 0.49936  0.24395  0.39321  Biso   1.000  O 
  O20      1.0000 0.05235  0.56382  0.15322  Biso   1.000  O 
