data_image0
_cell_length_a       24.3996
_cell_length_b       6.64525
_cell_length_c       17.2492
_cell_angle_alpha    90.0196
_cell_angle_beta     89.9965
_cell_angle_gamma    90.6562

_symmetry_space_group_name_H-M    "P 1"
_symmetry_int_tables_number       1

loop_
  _symmetry_equiv_pos_as_xyz
  'x, y, z'

loop_
  _atom_site_label
  _atom_site_occupancy
  _atom_site_fract_x
  _atom_site_fract_y
  _atom_site_fract_z
  _atom_site_thermal_displace_type
  _atom_site_B_iso_or_equiv
  _atom_site_type_symbol
  Al1      1.0000 0.00074  0.49529  0.00166  Biso   1.000  Al
  Al2      1.0000 0.50074  0.99776  0.50168  Biso   1.000  Al
  Al3      1.0000 0.00073  0.99527  0.99841  Biso   1.000  Al
  Al4      1.0000 0.50074  0.49776  0.49857  Biso   1.000  Al
  C1       1.0000 0.72414  0.75327  0.27286  Biso   1.000  C 
  C2       1.0000 0.64478  0.07808  0.67352  Biso   1.000  C 
  C3       1.0000 0.69225  0.07797  0.71805  Biso   1.000  C 
  C4       1.0000 0.62724  0.75501  0.36229  Biso   1.000  C 
  C5       1.0000 0.57673  0.75468  0.41083  Biso   1.000  C 
  C6       1.0000 0.22491  0.25162  0.77417  Biso   1.000  C 
  C7       1.0000 0.77513  0.75123  0.22671  Biso   1.000  C 
  C8       1.0000 0.79376  0.92416  0.18705  Biso   1.000  C 
  C9       1.0000 0.12790  0.25246  0.86329  Biso   1.000  C 
  C10      1.0000 0.07723  0.25210  0.91151  Biso   1.000  C 
  C11      1.0000 0.27478  0.75075  0.27425  Biso   1.000  C 
  C12      1.0000 0.84208  0.92224  0.14429  Biso   1.000  C 
  C13      1.0000 0.37339  0.24713  0.63966  Biso   1.000  C 
  C14      1.0000 0.19138  0.57659  0.21998  Biso   1.000  C 
  C15      1.0000 0.30625  0.57509  0.28035  Biso   1.000  C 
  C16      1.0000 0.35395  0.57239  0.32438  Biso   1.000  C 
  C17      1.0000 0.34287  0.42380  0.64631  Biso   1.000  C 
  C18      1.0000 0.92417  0.24186  0.90853  Biso   1.000  C 
  C19      1.0000 0.27589  0.25053  0.72799  Biso   1.000  C 
  C20      1.0000 0.80697  0.07483  0.77856  Biso   1.000  C 
  C21      1.0000 0.85458  0.07110  0.82276  Biso   1.000  C 
  C22      1.0000 0.77572  0.25107  0.77245  Biso   1.000  C 
  C23      1.0000 0.42357  0.74427  0.40959  Biso   1.000  C 
  C24      1.0000 0.87323  0.24529  0.86083  Biso   1.000  C 
  C25      1.0000 0.70739  0.42972  0.68879  Biso   1.000  C 
  C26      1.0000 0.29458  0.42464  0.68915  Biso   1.000  C 
  C27      1.0000 0.14399  0.57617  0.17526  Biso   1.000  C 
  C28      1.0000 0.37244  0.74698  0.36230  Biso   1.000  C 
  C29      1.0000 0.87271  0.74554  0.13845  Biso   1.000  C 
  C30      1.0000 0.42427  0.24442  0.59182  Biso   1.000  C 
  C31      1.0000 0.69177  0.57772  0.28127  Biso   1.000  C 
  C32      1.0000 0.65944  0.43139  0.64523  Biso   1.000  C 
  C33      1.0000 0.92373  0.74213  0.09091  Biso   1.000  C 
  C34      1.0000 0.72476  0.25323  0.72624  Biso   1.000  C 
  C35      1.0000 0.70662  0.92996  0.31005  Biso   1.000  C 
  C36      1.0000 0.62784  0.25513  0.63690  Biso   1.000  C 
  C37      1.0000 0.57722  0.25491  0.58859  Biso   1.000  C 
  C38      1.0000 0.22386  0.75202  0.22797  Biso   1.000  C 
  C39      1.0000 0.84283  0.42238  0.85456  Biso   1.000  C 
  C40      1.0000 0.79455  0.42439  0.81172  Biso   1.000  C 
  C41      1.0000 0.12712  0.75281  0.13826  Biso   1.000  C 
  C42      1.0000 0.34176  0.92342  0.35618  Biso   1.000  C 
  C43      1.0000 0.65867  0.93155  0.35366  Biso   1.000  C 
  C44      1.0000 0.29340  0.92444  0.31349  Biso   1.000  C 
  C45      1.0000 0.20769  0.42730  0.81234  Biso   1.000  C 
  C46      1.0000 0.15967  0.42850  0.85575  Biso   1.000  C 
  C47      1.0000 0.07669  0.75231  0.08950  Biso   1.000  C 
  C48      1.0000 0.85423  0.57172  0.17690  Biso   1.000  C 
  C49      1.0000 0.15869  0.92918  0.14642  Biso   1.000  C 
  C50      1.0000 0.20656  0.92803  0.19015  Biso   1.000  C 
  C51      1.0000 0.35490  0.07222  0.67734  Biso   1.000  C 
  C52      1.0000 0.64429  0.57780  0.32583  Biso   1.000  C 
  C53      1.0000 0.30726  0.07471  0.72149  Biso   1.000  C 
  C54      1.0000 0.19226  0.07646  0.78160  Biso   1.000  C 
  C55      1.0000 0.14473  0.07603  0.82605  Biso   1.000  C 
  C56      1.0000 0.80660  0.57542  0.22104  Biso   1.000  C 
  H1       1.0000 0.85615  0.05635  0.11346  Biso   1.000  H 
  H2       1.0000 0.85703  0.55677  0.88511  Biso   1.000  H 
  H3       1.0000 0.70390  0.94075  0.74823  Biso   1.000  H 
  H4       1.0000 0.61985  0.94198  0.66693  Biso   1.000  H 
  H5       1.0000 0.20300  0.43970  0.25041  Biso   1.000  H 
  H6       1.0000 0.11908  0.43999  0.16880  Biso   1.000  H 
  H7       1.0000 0.77035  0.56129  0.80996  Biso   1.000  H 
  H8       1.0000 0.61945  0.44157  0.33257  Biso   1.000  H 
  H9       1.0000 0.20385  0.93989  0.75089  Biso   1.000  H 
  H10      1.0000 0.14549  0.06526  0.11688  Biso   1.000  H 
  H11      1.0000 0.70355  0.44031  0.25129  Biso   1.000  H 
  H12      1.0000 0.35579  0.05808  0.38673  Biso   1.000  H 
  H13      1.0000 0.26898  0.06081  0.31183  Biso   1.000  H 
  H14      1.0000 0.11969  0.94006  0.83206  Biso   1.000  H 
  H15      1.0000 0.98126  0.73883  0.90262  Biso   1.000  H 
  H16      1.0000 0.76938  0.06065  0.18842  Biso   1.000  H 
  H17      1.0000 0.64530  0.06815  0.38272  Biso   1.000  H 
  H18      1.0000 0.35698  0.55871  0.61604  Biso   1.000  H 
  H19      1.0000 0.29365  0.43997  0.24886  Biso   1.000  H 
  H20      1.0000 0.87835  0.93381  0.82750  Biso   1.000  H 
  H21      1.0000 0.27023  0.56117  0.69120  Biso   1.000  H 
  H22      1.0000 0.29462  0.93936  0.75277  Biso   1.000  H 
  H23      1.0000 0.37880  0.93535  0.67226  Biso   1.000  H 
  H24      1.0000 0.79401  0.44101  0.25295  Biso   1.000  H 
  H25      1.0000 0.47945  0.24163  0.40371  Biso   1.000  H 
  H26      1.0000 0.48063  0.74160  0.59717  Biso   1.000  H 
  H27      1.0000 0.73255  0.56612  0.69243  Biso   1.000  H 
  H28      1.0000 0.87816  0.43472  0.17249  Biso   1.000  H 
  H29      1.0000 0.98070  0.23905  0.09723  Biso   1.000  H 
  H30      1.0000 0.23173  0.06442  0.19363  Biso   1.000  H 
  H31      1.0000 0.73164  0.06664  0.30621  Biso   1.000  H 
  H32      1.0000 0.23301  0.56341  0.80936  Biso   1.000  H 
  H33      1.0000 0.14651  0.56437  0.88551  Biso   1.000  H 
  H34      1.0000 0.37790  0.43555  0.32911  Biso   1.000  H 
  H35      1.0000 0.64619  0.56784  0.61598  Biso   1.000  H 
  H36      1.0000 0.79422  0.94008  0.74694  Biso   1.000  H 
  O1       1.0000 0.06012  0.42128  0.93551  Biso   1.000  O 
  O2       1.0000 0.44506  0.91402  0.42741  Biso   1.000  O 
  O3       1.0000 0.55970  0.92388  0.43493  Biso   1.000  O 
  O4       1.0000 0.94565  0.41145  0.92662  Biso   1.000  O 
  O5       1.0000 0.99915  0.24368  0.04753  Biso   1.000  O 
  O6       1.0000 0.49935  0.74616  0.54766  Biso   1.000  O 
  O7       1.0000 0.05453  0.08221  0.92525  Biso   1.000  O 
  O8       1.0000 0.56015  0.42407  0.56459  Biso   1.000  O 
  O9       1.0000 0.44195  0.57231  0.42876  Biso   1.000  O 
  O10      1.0000 0.55451  0.08508  0.57478  Biso   1.000  O 
  O11      1.0000 0.99939  0.74358  0.95256  Biso   1.000  O 
  O12      1.0000 0.55409  0.58484  0.42477  Biso   1.000  O 
  O13      1.0000 0.44568  0.41413  0.57379  Biso   1.000  O 
  O14      1.0000 0.44246  0.07243  0.57230  Biso   1.000  O 
  O15      1.0000 0.94522  0.91171  0.07287  Biso   1.000  O 
  O16      1.0000 0.05970  0.92142  0.06531  Biso   1.000  O 
  O17      1.0000 0.94203  0.57004  0.07172  Biso   1.000  O 
  O18      1.0000 0.94240  0.06980  0.92784  Biso   1.000  O 
  O19      1.0000 0.49900  0.24614  0.45257  Biso   1.000  O 
  O20      1.0000 0.05410  0.58236  0.07548  Biso   1.000  O 
