data_image0
_cell_length_a       27.8534
_cell_length_b       6.62439
_cell_length_c       6.53834
_cell_angle_alpha    99.0008
_cell_angle_beta     87.4015
_cell_angle_gamma    83.2919

_symmetry_space_group_name_H-M    "P 1"
_symmetry_int_tables_number       1

loop_
  _symmetry_equiv_pos_as_xyz
  'x, y, z'

loop_
  _atom_site_label
  _atom_site_occupancy
  _atom_site_fract_x
  _atom_site_fract_y
  _atom_site_fract_z
  _atom_site_thermal_displace_type
  _atom_site_B_iso_or_equiv
  _atom_site_type_symbol
  Al1      1.0000 0.99916  0.49787  0.00952  Biso   1.000  Al
  Al2      1.0000 0.49920  0.99846  0.50613  Biso   1.000  Al
  Al3      1.0000 0.99946  0.99740  0.00255  Biso   1.000  Al
  Al4      1.0000 0.49944  0.49800  0.49967  Biso   1.000  Al
  C1       1.0000 0.72269  0.74065  0.24268  Biso   1.000  C 
  C2       1.0000 0.65148  0.07441  0.77834  Biso   1.000  C 
  C3       1.0000 0.70126  0.07555  0.78565  Biso   1.000  C 
  C4       1.0000 0.62303  0.69607  0.23997  Biso   1.000  C 
  C5       1.0000 0.57046  0.68324  0.27897  Biso   1.000  C 
  C6       1.0000 0.22310  0.24101  0.74719  Biso   1.000  C 
  C7       1.0000 0.77460  0.76521  0.25299  Biso   1.000  C 
  C8       1.0000 0.79223  0.94345  0.20311  Biso   1.000  C 
  C9       1.0000 0.12345  0.19589  0.74564  Biso   1.000  C 
  C10      1.0000 0.07086  0.18286  0.78409  Biso   1.000  C 
  C11      1.0000 0.27606  0.74704  0.24758  Biso   1.000  C 
  C12      1.0000 0.84120  0.96496  0.20528  Biso   1.000  C 
  C13      1.0000 0.37488  0.30763  0.75437  Biso   1.000  C 
  C14      1.0000 0.20086  0.57636  0.29110  Biso   1.000  C 
  C15      1.0000 0.30814  0.56277  0.21823  Biso   1.000  C 
  C16      1.0000 0.35775  0.56550  0.22959  Biso   1.000  C 
  C17      1.0000 0.34149  0.46571  0.70628  Biso   1.000  C 
  C18      1.0000 0.92917  0.25598  0.81305  Biso   1.000  C 
  C19      1.0000 0.27503  0.26585  0.75628  Biso   1.000  C 
  C20      1.0000 0.80862  0.06179  0.71584  Biso   1.000  C 
  C21      1.0000 0.85820  0.06450  0.72862  Biso   1.000  C 
  C22      1.0000 0.77657  0.24605  0.74407  Biso   1.000  C 
  C23      1.0000 0.42882  0.75702  0.31222  Biso   1.000  C 
  C24      1.0000 0.87740  0.25197  0.76811  Biso   1.000  C 
  C25      1.0000 0.69361  0.41755  0.69743  Biso   1.000  C 
  C26      1.0000 0.29252  0.44396  0.70535  Biso   1.000  C 
  C27      1.0000 0.15109  0.57489  0.28431  Biso   1.000  C 
  C28      1.0000 0.37696  0.75302  0.26878  Biso   1.000  C 
  C29      1.0000 0.87446  0.80658  0.25359  Biso   1.000  C 
  C30      1.0000 0.42778  0.31560  0.71975  Biso   1.000  C 
  C31      1.0000 0.70682  0.54438  0.21655  Biso   1.000  C 
  C32      1.0000 0.64375  0.41959  0.69613  Biso   1.000  C 
  C33      1.0000 0.92741  0.81479  0.22067  Biso   1.000  C 
  C34      1.0000 0.72359  0.24547  0.74128  Biso   1.000  C 
  C35      1.0000 0.68733  0.91359  0.25918  Biso   1.000  C 
  C36      1.0000 0.62223  0.24643  0.73234  Biso   1.000  C 
  C37      1.0000 0.57008  0.24096  0.69442  Biso   1.000  C 
  C38      1.0000 0.22308  0.74632  0.24608  Biso   1.000  C 
  C39      1.0000 0.84604  0.43684  0.79036  Biso   1.000  C 
  C40      1.0000 0.79651  0.43340  0.77932  Biso   1.000  C 
  C41      1.0000 0.12176  0.74665  0.23824  Biso   1.000  C 
  C42      1.0000 0.34557  0.93787  0.29221  Biso   1.000  C 
  C43      1.0000 0.63843  0.89185  0.25487  Biso   1.000  C 
  C44      1.0000 0.29601  0.93439  0.28254  Biso   1.000  C 
  C45      1.0000 0.18768  0.41383  0.76451  Biso   1.000  C 
  C46      1.0000 0.13879  0.39182  0.76078  Biso   1.000  C 
  C47      1.0000 0.06967  0.74070  0.19981  Biso   1.000  C 
  C48      1.0000 0.85740  0.62998  0.30847  Biso   1.000  C 
  C49      1.0000 0.14316  0.92001  0.20182  Biso   1.000  C 
  C50      1.0000 0.19301  0.91832  0.20261  Biso   1.000  C 
  C51      1.0000 0.35794  0.13125  0.81042  Biso   1.000  C 
  C52      1.0000 0.65782  0.52211  0.21780  Biso   1.000  C 
  C53      1.0000 0.30877  0.11200  0.81323  Biso   1.000  C 
  C54      1.0000 0.20729  0.04465  0.72123  Biso   1.000  C 
  C55      1.0000 0.15830  0.02210  0.72307  Biso   1.000  C 
  C56      1.0000 0.80821  0.61093  0.31008  Biso   1.000  C 
  H1       1.0000 0.85458  0.10166  0.16276  Biso   1.000  H 
  H2       1.0000 0.86088  0.58243  0.82461  Biso   1.000  H 
  H3       1.0000 0.72319  0.94238  0.82692  Biso   1.000  H 
  H4       1.0000 0.63482  0.93990  0.80740  Biso   1.000  H 
  H5       1.0000 0.22289  0.44346  0.33241  Biso   1.000  H 
  H6       1.0000 0.13451  0.44033  0.31379  Biso   1.000  H 
  H7       1.0000 0.77266  0.57867  0.80671  Biso   1.000  H 
  H8       1.0000 0.64589  0.36998  0.20321  Biso   1.000  H 
  H9       1.0000 0.23396  0.90783  0.69950  Biso   1.000  H 
  H10      1.0000 0.12024  0.05226  0.16460  Biso   1.000  H 
  H11      1.0000 0.73343  0.40738  0.19530  Biso   1.000  H 
  H12      1.0000 0.36043  0.08342  0.32626  Biso   1.000  H 
  H13      1.0000 0.27215  0.07966  0.31066  Biso   1.000  H 
  H14      1.0000 0.14644  0.86984  0.70825  Biso   1.000  H 
  H15      1.0000 0.99584  0.70414  0.72965  Biso   1.000  H 
  H16      1.0000 0.76742  0.06443  0.15526  Biso   1.000  H 
  H17      1.0000 0.61122  0.02655  0.27223  Biso   1.000  H 
  H18      1.0000 0.35477  0.60223  0.66278  Biso   1.000  H 
  H19      1.0000 0.29420  0.41506  0.18446  Biso   1.000  H 
  H20      1.0000 0.88267  0.92135  0.71228  Biso   1.000  H 
  H21      1.0000 0.26759  0.56466  0.65770  Biso   1.000  H 
  H22      1.0000 0.29645  0.97468  0.85958  Biso   1.000  H 
  H23      1.0000 0.38398  0.00834  0.84768  Biso   1.000  H 
  H24      1.0000 0.79578  0.47342  0.35553  Biso   1.000  H 
  H25      1.0000 0.49571  0.20483  0.22647  Biso   1.000  H 
  H26      1.0000 0.50942  0.77902  0.77371  Biso   1.000  H 
  H27      1.0000 0.70953  0.55036  0.65865  Biso   1.000  H 
  H28      1.0000 0.88333  0.50673  0.34580  Biso   1.000  H 
  H29      1.0000 0.00955  0.27812  0.27653  Biso   1.000  H 
  H30      1.0000 0.20886  0.05115  0.16346  Biso   1.000  H 
  H31      1.0000 0.69808  0.06799  0.28449  Biso   1.000  H 
  H32      1.0000 0.19839  0.56830  0.78970  Biso   1.000  H 
  H33      1.0000 0.11154  0.52637  0.77848  Biso   1.000  H 
  H34      1.0000 0.38225  0.42238  0.21236  Biso   1.000  H 
  H35      1.0000 0.62091  0.55211  0.65898  Biso   1.000  H 
  H36      1.0000 0.79470  0.91408  0.68174  Biso   1.000  H 
  O1       1.0000 0.04185  0.34746  0.78480  Biso   1.000  O 
  O2       1.0000 0.44272  0.93335  0.36451  Biso   1.000  O 
  O3       1.0000 0.54142  0.84793  0.28030  Biso   1.000  O 
  O4       1.0000 0.94303  0.43232  0.86565  Biso   1.000  O 
  O5       1.0000 0.99950  0.26548  0.13562  Biso   1.000  O 
  O6       1.0000 0.49972  0.76612  0.63228  Biso   1.000  O 
  O7       1.0000 0.05791  0.01570  0.82841  Biso   1.000  O 
  O8       1.0000 0.54383  0.41214  0.69419  Biso   1.000  O 
  O9       1.0000 0.45553  0.58532  0.30493  Biso   1.000  O 
  O10      1.0000 0.55563  0.06420  0.65233  Biso   1.000  O 
  O11      1.0000 0.00005  0.72721  0.87737  Biso   1.000  O 
  O12      1.0000 0.55757  0.51604  0.32333  Biso   1.000  O 
  O13      1.0000 0.44150  0.47955  0.67142  Biso   1.000  O 
  O14      1.0000 0.45632  0.15150  0.72832  Biso   1.000  O 
  O15      1.0000 0.94121  0.97875  0.17284  Biso   1.000  O 
  O16      1.0000 0.04337  0.91166  0.19912  Biso   1.000  O 
  O17      1.0000 0.95590  0.65082  0.23017  Biso   1.000  O 
  O18      1.0000 0.95584  0.08432  0.80672  Biso   1.000  O 
  O19      1.0000 0.49980  0.22791  0.37428  Biso   1.000  O 
  O20      1.0000 0.05532  0.56374  0.15746  Biso   1.000  O 
