data_image0
_cell_length_a       27.9303
_cell_length_b       6.68969
_cell_length_c       7.50941
_cell_angle_alpha    90.8546
_cell_angle_beta     89.7754
_cell_angle_gamma    87.1134

_symmetry_space_group_name_H-M    "P 1"
_symmetry_int_tables_number       1

loop_
  _symmetry_equiv_pos_as_xyz
  'x, y, z'

loop_
  _atom_site_label
  _atom_site_occupancy
  _atom_site_fract_x
  _atom_site_fract_y
  _atom_site_fract_z
  _atom_site_thermal_displace_type
  _atom_site_B_iso_or_equiv
  _atom_site_type_symbol
  Al1      1.0000 0.99903  0.49654  0.00656  Biso   1.000  Al
  Al2      1.0000 0.49911  0.99551  0.50278  Biso   1.000  Al
  Al3      1.0000 0.99905  0.99658  0.99919  Biso   1.000  Al
  Al4      1.0000 0.49908  0.49537  0.49523  Biso   1.000  Al
  C1       1.0000 0.72260  0.74708  0.25089  Biso   1.000  C 
  C2       1.0000 0.64962  0.06857  0.76770  Biso   1.000  C 
  C3       1.0000 0.69923  0.07359  0.78143  Biso   1.000  C 
  C4       1.0000 0.62174  0.73495  0.27321  Biso   1.000  C 
  C5       1.0000 0.56950  0.72858  0.31455  Biso   1.000  C 
  C6       1.0000 0.22294  0.24790  0.75597  Biso   1.000  C 
  C7       1.0000 0.77540  0.75368  0.24677  Biso   1.000  C 
  C8       1.0000 0.79727  0.92867  0.19407  Biso   1.000  C 
  C9       1.0000 0.12209  0.23582  0.77934  Biso   1.000  C 
  C10      1.0000 0.06980  0.22968  0.81999  Biso   1.000  C 
  C11      1.0000 0.27543  0.75345  0.25377  Biso   1.000  C 
  C12      1.0000 0.84685  0.93548  0.18459  Biso   1.000  C 
  C13      1.0000 0.37653  0.26561  0.72382  Biso   1.000  C 
  C14      1.0000 0.19879  0.57409  0.28695  Biso   1.000  C 
  C15      1.0000 0.30498  0.58299  0.20854  Biso   1.000  C 
  C16      1.0000 0.35462  0.58564  0.22268  Biso   1.000  C 
  C17      1.0000 0.34711  0.43527  0.68438  Biso   1.000  C 
  C18      1.0000 0.92869  0.26080  0.82343  Biso   1.000  C 
  C19      1.0000 0.27574  0.25448  0.75026  Biso   1.000  C 
  C20      1.0000 0.80567  0.08224  0.70673  Biso   1.000  C 
  C21      1.0000 0.85526  0.08535  0.72304  Biso   1.000  C 
  C22      1.0000 0.77592  0.25300  0.74905  Biso   1.000  C 
  C23      1.0000 0.42841  0.75983  0.32134  Biso   1.000  C 
  C24      1.0000 0.87663  0.26090  0.77901  Biso   1.000  C 
  C25      1.0000 0.69511  0.42091  0.69640  Biso   1.000  C 
  C26      1.0000 0.29754  0.42892  0.69573  Biso   1.000  C 
  C27      1.0000 0.14918  0.56914  0.27353  Biso   1.000  C 
  C28      1.0000 0.37622  0.76048  0.27913  Biso   1.000  C 
  C29      1.0000 0.87621  0.76577  0.22426  Biso   1.000  C 
  C30      1.0000 0.42880  0.26521  0.68102  Biso   1.000  C 
  C31      1.0000 0.69940  0.56878  0.21386  Biso   1.000  C 
  C32      1.0000 0.64548  0.41770  0.68673  Biso   1.000  C 
  C33      1.0000 0.92853  0.76598  0.18296  Biso   1.000  C 
  C34      1.0000 0.72310  0.24859  0.74231  Biso   1.000  C 
  C35      1.0000 0.69393  0.92062  0.29302  Biso   1.000  C 
  C36      1.0000 0.62224  0.24044  0.71858  Biso   1.000  C 
  C37      1.0000 0.57002  0.23445  0.67847  Biso   1.000  C 
  C38      1.0000 0.22260  0.74951  0.24885  Biso   1.000  C 
  C39      1.0000 0.84748  0.43426  0.81357  Biso   1.000  C 
  C40      1.0000 0.79794  0.42967  0.80022  Biso   1.000  C 
  C41      1.0000 0.12178  0.74145  0.22568  Biso   1.000  C 
  C42      1.0000 0.34724  0.93361  0.31654  Biso   1.000  C 
  C43      1.0000 0.64432  0.91527  0.30207  Biso   1.000  C 
  C44      1.0000 0.29766  0.92940  0.30555  Biso   1.000  C 
  C45      1.0000 0.19428  0.42169  0.79742  Biso   1.000  C 
  C46      1.0000 0.14467  0.41633  0.80696  Biso   1.000  C 
  C47      1.0000 0.06963  0.73543  0.18435  Biso   1.000  C 
  C48      1.0000 0.85496  0.59200  0.28139  Biso   1.000  C 
  C49      1.0000 0.14494  0.91924  0.19569  Biso   1.000  C 
  C50      1.0000 0.19456  0.92250  0.20514  Biso   1.000  C 
  C51      1.0000 0.35535  0.09241  0.78260  Biso   1.000  C 
  C52      1.0000 0.64978  0.56190  0.22682  Biso   1.000  C 
  C53      1.0000 0.30571  0.08788  0.79738  Biso   1.000  C 
  C54      1.0000 0.19973  0.06921  0.72069  Biso   1.000  C 
  C55      1.0000 0.15012  0.06239  0.73415  Biso   1.000  C 
  C56      1.0000 0.80530  0.58695  0.29417  Biso   1.000  C 
  H1       1.0000 0.86348  0.06951  0.13921  Biso   1.000  H 
  H2       1.0000 0.86418  0.56978  0.85805  Biso   1.000  H 
  H3       1.0000 0.71992  0.94013  0.82376  Biso   1.000  H 
  H4       1.0000 0.63163  0.93110  0.79381  Biso   1.000  H 
  H5       1.0000 0.21955  0.44023  0.32793  Biso   1.000  H 
  H6       1.0000 0.13121  0.43131  0.29858  Biso   1.000  H 
  H7       1.0000 0.77582  0.56304  0.83677  Biso   1.000  H 
  H8       1.0000 0.63229  0.42207  0.20262  Biso   1.000  H 
  H9       1.0000 0.22099  0.93427  0.68169  Biso   1.000  H 
  H10      1.0000 0.12352  0.05203  0.15738  Biso   1.000  H 
  H11      1.0000 0.72067  0.43415  0.17402  Biso   1.000  H 
  H12      1.0000 0.36412  0.06857  0.36131  Biso   1.000  H 
  H13      1.0000 0.27570  0.06245  0.34434  Biso   1.000  H 
  H14      1.0000 0.13263  0.92236  0.71113  Biso   1.000  H 
  H15      1.0000 0.00524  0.73572  0.76734  Biso   1.000  H 
  H16      1.0000 0.77506  0.05868  0.15352  Biso   1.000  H 
  H17      1.0000 0.62240  0.04874  0.33909  Biso   1.000  H 
  H18      1.0000 0.36366  0.56894  0.63769  Biso   1.000  H 
  H19      1.0000 0.28880  0.44699  0.16145  Biso   1.000  H 
  H20      1.0000 0.87796  0.95111  0.69511  Biso   1.000  H 
  H21      1.0000 0.27527  0.55884  0.65523  Biso   1.000  H 
  H22      1.0000 0.28990  0.95327  0.84635  Biso   1.000  H 
  H23      1.0000 0.37823  0.96094  0.81402  Biso   1.000  H 
  H24      1.0000 0.78940  0.45195  0.34191  Biso   1.000  H 
  H25      1.0000 0.50306  0.23508  0.26263  Biso   1.000  H 
  H26      1.0000 0.50754  0.74152  0.73284  Biso   1.000  H 
  H27      1.0000 0.71257  0.55727  0.66165  Biso   1.000  H 
  H28      1.0000 0.87783  0.46060  0.31317  Biso   1.000  H 
  H29      1.0000 0.00760  0.24277  0.23666  Biso   1.000  H 
  H30      1.0000 0.21200  0.05929  0.17149  Biso   1.000  H 
  H31      1.0000 0.71083  0.05977  0.32593  Biso   1.000  H 
  H32      1.0000 0.21119  0.56119  0.82907  Biso   1.000  H 
  H33      1.0000 0.12276  0.55009  0.84328  Biso   1.000  H 
  H34      1.0000 0.37719  0.45164  0.19254  Biso   1.000  H 
  H35      1.0000 0.62413  0.55020  0.64714  Biso   1.000  H 
  H36      1.0000 0.78970  0.94553  0.66026  Biso   1.000  H 
  O1       1.0000 0.04604  0.39716  0.83394  Biso   1.000  O 
  O2       1.0000 0.44571  0.92816  0.35713  Biso   1.000  O 
  O3       1.0000 0.54575  0.89600  0.32906  Biso   1.000  O 
  O4       1.0000 0.94583  0.42928  0.85994  Biso   1.000  O 
  O5       1.0000 0.99960  0.24669  0.11138  Biso   1.000  O 
  O6       1.0000 0.49977  0.74562  0.60735  Biso   1.000  O 
  O7       1.0000 0.05288  0.05904  0.84740  Biso   1.000  O 
  O8       1.0000 0.54648  0.40186  0.66455  Biso   1.000  O 
  O9       1.0000 0.45173  0.59094  0.32760  Biso   1.000  O 
  O10      1.0000 0.55289  0.06327  0.65167  Biso   1.000  O 
  O11      1.0000 0.99956  0.74336  0.89458  Biso   1.000  O 
  O12      1.0000 0.55264  0.55788  0.34220  Biso   1.000  O 
  O13      1.0000 0.44597  0.43276  0.64510  Biso   1.000  O 
  O14      1.0000 0.45231  0.09650  0.67438  Biso   1.000  O 
  O15      1.0000 0.94567  0.93361  0.14724  Biso   1.000  O 
  O16      1.0000 0.04612  0.90287  0.17003  Biso   1.000  O 
  O17      1.0000 0.95215  0.59753  0.17712  Biso   1.000  O 
  O18      1.0000 0.95205  0.09211  0.83054  Biso   1.000  O 
  O19      1.0000 0.49933  0.24229  0.39082  Biso   1.000  O 
  O20      1.0000 0.05262  0.56420  0.15672  Biso   1.000  O 
