data_image0
_cell_length_a       27.9425
_cell_length_b       6.69048
_cell_length_c       7.35121
_cell_angle_alpha    93.2601
_cell_angle_beta     89.0977
_cell_angle_gamma    87.5394

_symmetry_space_group_name_H-M    "P 1"
_symmetry_int_tables_number       1

loop_
  _symmetry_equiv_pos_as_xyz
  'x, y, z'

loop_
  _atom_site_label
  _atom_site_occupancy
  _atom_site_fract_x
  _atom_site_fract_y
  _atom_site_fract_z
  _atom_site_thermal_displace_type
  _atom_site_B_iso_or_equiv
  _atom_site_type_symbol
  Al1      1.0000 0.99929  0.49374  0.00773  Biso   1.000  Al
  Al2      1.0000 0.49932  0.99822  0.50094  Biso   1.000  Al
  Al3      1.0000 0.99953  0.99359  0.00143  Biso   1.000  Al
  Al4      1.0000 0.49948  0.49791  0.49475  Biso   1.000  Al
  C1       1.0000 0.72272  0.74808  0.24705  Biso   1.000  C 
  C2       1.0000 0.64821  0.07959  0.77174  Biso   1.000  C 
  C3       1.0000 0.69783  0.07974  0.78559  Biso   1.000  C 
  C4       1.0000 0.62190  0.73174  0.26435  Biso   1.000  C 
  C5       1.0000 0.56957  0.72508  0.30644  Biso   1.000  C 
  C6       1.0000 0.22313  0.24846  0.75415  Biso   1.000  C 
  C7       1.0000 0.77548  0.75670  0.24770  Biso   1.000  C 
  C8       1.0000 0.79790  0.92987  0.19616  Biso   1.000  C 
  C9       1.0000 0.12234  0.22906  0.77318  Biso   1.000  C 
  C10      1.0000 0.06995  0.22143  0.81447  Biso   1.000  C 
  C11      1.0000 0.27569  0.75014  0.25344  Biso   1.000  C 
  C12      1.0000 0.84751  0.93749  0.19076  Biso   1.000  C 
  C13      1.0000 0.37670  0.27465  0.73145  Biso   1.000  C 
  C14      1.0000 0.19785  0.57923  0.29168  Biso   1.000  C 
  C15      1.0000 0.30442  0.57515  0.20948  Biso   1.000  C 
  C16      1.0000 0.35405  0.57554  0.22282  Biso   1.000  C 
  C17      1.0000 0.34740  0.44060  0.68922  Biso   1.000  C 
  C18      1.0000 0.92884  0.24741  0.82398  Biso   1.000  C 
  C19      1.0000 0.27588  0.25868  0.75229  Biso   1.000  C 
  C20      1.0000 0.80485  0.07192  0.70812  Biso   1.000  C 
  C21      1.0000 0.85443  0.07141  0.72468  Biso   1.000  C 
  C22      1.0000 0.77617  0.24771  0.74930  Biso   1.000  C 
  C23      1.0000 0.42862  0.75191  0.31868  Biso   1.000  C 
  C24      1.0000 0.87686  0.24799  0.77976  Biso   1.000  C 
  C25      1.0000 0.69694  0.42002  0.69143  Biso   1.000  C 
  C26      1.0000 0.29782  0.43176  0.69777  Biso   1.000  C 
  C27      1.0000 0.14824  0.57718  0.27879  Biso   1.000  C 
  C28      1.0000 0.37649  0.75224  0.27740  Biso   1.000  C 
  C29      1.0000 0.87638  0.77039  0.23320  Biso   1.000  C 
  C30      1.0000 0.42914  0.27408  0.68865  Biso   1.000  C 
  C31      1.0000 0.70004  0.56658  0.20857  Biso   1.000  C 
  C32      1.0000 0.64729  0.42196  0.68161  Biso   1.000  C 
  C33      1.0000 0.92895  0.76944  0.19326  Biso   1.000  C 
  C34      1.0000 0.72332  0.24852  0.74197  Biso   1.000  C 
  C35      1.0000 0.69360  0.92258  0.28670  Biso   1.000  C 
  C36      1.0000 0.62246  0.25037  0.71796  Biso   1.000  C 
  C37      1.0000 0.57034  0.24627  0.67701  Biso   1.000  C 
  C38      1.0000 0.22284  0.74961  0.24892  Biso   1.000  C 
  C39      1.0000 0.84877  0.42559  0.81369  Biso   1.000  C 
  C40      1.0000 0.79925  0.42492  0.80004  Biso   1.000  C 
  C41      1.0000 0.12205  0.74770  0.22695  Biso   1.000  C 
  C42      1.0000 0.34832  0.92919  0.31393  Biso   1.000  C 
  C43      1.0000 0.64401  0.91501  0.29326  Biso   1.000  C 
  C44      1.0000 0.29875  0.92757  0.30357  Biso   1.000  C 
  C45      1.0000 0.19373  0.42220  0.79383  Biso   1.000  C 
  C46      1.0000 0.14418  0.41306  0.80123  Biso   1.000  C 
  C47      1.0000 0.07000  0.74208  0.18554  Biso   1.000  C 
  C48      1.0000 0.85453  0.59887  0.28984  Biso   1.000  C 
  C49      1.0000 0.14637  0.92109  0.19226  Biso   1.000  C 
  C50      1.0000 0.19600  0.92106  0.20111  Biso   1.000  C 
  C51      1.0000 0.35534  0.10330  0.79111  Biso   1.000  C 
  C52      1.0000 0.65039  0.55772  0.21898  Biso   1.000  C 
  C53      1.0000 0.30567  0.09654  0.80326  Biso   1.000  C 
  C54      1.0000 0.20072  0.06603  0.71717  Biso   1.000  C 
  C55      1.0000 0.15111  0.05564  0.72847  Biso   1.000  C 
  C56      1.0000 0.80481  0.59326  0.29884  Biso   1.000  C 
  H1       1.0000 0.86465  0.06978  0.14601  Biso   1.000  H 
  H2       1.0000 0.86627  0.56182  0.85794  Biso   1.000  H 
  H3       1.0000 0.71720  0.94745  0.83165  Biso   1.000  H 
  H4       1.0000 0.62893  0.94664  0.80110  Biso   1.000  H 
  H5       1.0000 0.21764  0.44703  0.33584  Biso   1.000  H 
  H6       1.0000 0.12933  0.44294  0.30724  Biso   1.000  H 
  H7       1.0000 0.77796  0.56227  0.83603  Biso   1.000  H 
  H8       1.0000 0.63326  0.41564  0.19414  Biso   1.000  H 
  H9       1.0000 0.22260  0.93093  0.67860  Biso   1.000  H 
  H10      1.0000 0.12588  0.05242  0.15070  Biso   1.000  H 
  H11      1.0000 0.72172  0.43094  0.16989  Biso   1.000  H 
  H12      1.0000 0.36581  0.06558  0.35780  Biso   1.000  H 
  H13      1.0000 0.27741  0.06424  0.34165  Biso   1.000  H 
  H14      1.0000 0.13422  0.91289  0.70428  Biso   1.000  H 
  H15      1.0000 0.99755  0.72463  0.76260  Biso   1.000  H 
  H16      1.0000 0.77622  0.05751  0.15315  Biso   1.000  H 
  H17      1.0000 0.62165  0.04926  0.32883  Biso   1.000  H 
  H18      1.0000 0.36408  0.57285  0.64206  Biso   1.000  H 
  H19      1.0000 0.28763  0.43747  0.16352  Biso   1.000  H 
  H20      1.0000 0.87622  0.93364  0.69704  Biso   1.000  H 
  H21      1.0000 0.27572  0.55824  0.65479  Biso   1.000  H 
  H22      1.0000 0.28968  0.96340  0.85250  Biso   1.000  H 
  H23      1.0000 0.37809  0.97474  0.82492  Biso   1.000  H 
  H24      1.0000 0.78840  0.46002  0.34591  Biso   1.000  H 
  H25      1.0000 0.49589  0.22964  0.25638  Biso   1.000  H 
  H26      1.0000 0.50299  0.75768  0.73949  Biso   1.000  H 
  H27      1.0000 0.71571  0.55137  0.65329  Biso   1.000  H 
  H28      1.0000 0.87695  0.46941  0.32387  Biso   1.000  H 
  H29      1.0000 0.00408  0.25278  0.24579  Biso   1.000  H 
  H30      1.0000 0.21440  0.05370  0.16390  Biso   1.000  H 
  H31      1.0000 0.71005  0.06457  0.32020  Biso   1.000  H 
  H32      1.0000 0.20997  0.56492  0.82627  Biso   1.000  H 
  H33      1.0000 0.12164  0.54684  0.83636  Biso   1.000  H 
  H34      1.0000 0.37592  0.43832  0.19323  Biso   1.000  H 
  H35      1.0000 0.62722  0.55355  0.63831  Biso   1.000  H 
  H36      1.0000 0.78808  0.93431  0.66174  Biso   1.000  H 
  O1       1.0000 0.04606  0.38850  0.82916  Biso   1.000  O 
  O2       1.0000 0.44642  0.92192  0.35237  Biso   1.000  O 
  O3       1.0000 0.54582  0.89242  0.32200  Biso   1.000  O 
  O4       1.0000 0.94656  0.41745  0.85861  Biso   1.000  O 
  O5       1.0000 0.99979  0.24905  0.11522  Biso   1.000  O 
  O6       1.0000 0.49976  0.75354  0.60841  Biso   1.000  O 
  O7       1.0000 0.05300  0.05150  0.84221  Biso   1.000  O 
  O8       1.0000 0.54768  0.41380  0.66177  Biso   1.000  O 
  O9       1.0000 0.45135  0.58297  0.32650  Biso   1.000  O 
  O10      1.0000 0.55253  0.07477  0.65061  Biso   1.000  O 
  O11      1.0000 0.99944  0.73603  0.89414  Biso   1.000  O 
  O12      1.0000 0.55258  0.55536  0.33449  Biso   1.000  O 
  O13      1.0000 0.44672  0.44067  0.65430  Biso   1.000  O 
  O14      1.0000 0.45234  0.10499  0.67961  Biso   1.000  O 
  O15      1.0000 0.94667  0.93595  0.15979  Biso   1.000  O 
  O16      1.0000 0.04719  0.90925  0.17033  Biso   1.000  O 
  O17      1.0000 0.95217  0.60039  0.18535  Biso   1.000  O 
  O18      1.0000 0.95152  0.07851  0.83286  Biso   1.000  O 
  O19      1.0000 0.49915  0.24044  0.38744  Biso   1.000  O 
  O20      1.0000 0.05244  0.57020  0.15846  Biso   1.000  O 
