data_image0
_cell_length_a       25.1364
_cell_length_b       6.64547
_cell_length_c       16.0561
_cell_angle_alpha    90.0705
_cell_angle_beta     89.9983
_cell_angle_gamma    90.5091

_symmetry_space_group_name_H-M    "P 1"
_symmetry_int_tables_number       1

loop_
  _symmetry_equiv_pos_as_xyz
  'x, y, z'

loop_
  _atom_site_label
  _atom_site_occupancy
  _atom_site_fract_x
  _atom_site_fract_y
  _atom_site_fract_z
  _atom_site_thermal_displace_type
  _atom_site_B_iso_or_equiv
  _atom_site_type_symbol
  Al1      1.0000 0.00076  0.49630  0.00167  Biso   1.000  Al
  Al2      1.0000 0.50080  0.99722  0.50171  Biso   1.000  Al
  Al3      1.0000 0.00079  0.99625  0.99813  Biso   1.000  Al
  Al4      1.0000 0.50081  0.49724  0.49838  Biso   1.000  Al
  C1       1.0000 0.72387  0.75237  0.27141  Biso   1.000  C 
  C2       1.0000 0.64488  0.07661  0.67879  Biso   1.000  C 
  C3       1.0000 0.69284  0.07702  0.72190  Biso   1.000  C 
  C4       1.0000 0.62591  0.75286  0.35739  Biso   1.000  C 
  C5       1.0000 0.57518  0.75196  0.40541  Biso   1.000  C 
  C6       1.0000 0.22475  0.25158  0.77329  Biso   1.000  C 
  C7       1.0000 0.77544  0.75111  0.22730  Biso   1.000  C 
  C8       1.0000 0.79503  0.92460  0.18692  Biso   1.000  C 
  C9       1.0000 0.12682  0.25218  0.85928  Biso   1.000  C 
  C10      1.0000 0.07593  0.25154  0.90686  Biso   1.000  C 
  C11      1.0000 0.27492  0.75052  0.27389  Biso   1.000  C 
  C12      1.0000 0.84377  0.92361  0.14594  Biso   1.000  C 
  C13      1.0000 0.37472  0.24812  0.64412  Biso   1.000  C 
  C14      1.0000 0.19168  0.57663  0.22420  Biso   1.000  C 
  C15      1.0000 0.30578  0.57482  0.27730  Biso   1.000  C 
  C16      1.0000 0.35402  0.57231  0.31960  Biso   1.000  C 
  C17      1.0000 0.34455  0.42440  0.64803  Biso   1.000  C 
  C18      1.0000 0.92579  0.24393  0.90297  Biso   1.000  C 
  C19      1.0000 0.27623  0.25078  0.72897  Biso   1.000  C 
  C20      1.0000 0.80694  0.07548  0.77461  Biso   1.000  C 
  C21      1.0000 0.85516  0.07249  0.81693  Biso   1.000  C 
  C22      1.0000 0.77603  0.25112  0.77161  Biso   1.000  C 
  C23      1.0000 0.42490  0.74494  0.40475  Biso   1.000  C 
  C24      1.0000 0.87463  0.24690  0.85606  Biso   1.000  C 
  C25      1.0000 0.70577  0.42885  0.68917  Biso   1.000  C 
  C26      1.0000 0.29585  0.42492  0.68912  Biso   1.000  C 
  C27      1.0000 0.14379  0.57613  0.18087  Biso   1.000  C 
  C28      1.0000 0.37354  0.74715  0.35836  Biso   1.000  C 
  C29      1.0000 0.87398  0.74733  0.14258  Biso   1.000  C 
  C30      1.0000 0.42587  0.24568  0.59712  Biso   1.000  C 
  C31      1.0000 0.69227  0.57671  0.27677  Biso   1.000  C 
  C32      1.0000 0.65738  0.43004  0.64722  Biso   1.000  C 
  C33      1.0000 0.92514  0.74447  0.09565  Biso   1.000  C 
  C34      1.0000 0.72450  0.25252  0.72744  Biso   1.000  C 
  C35      1.0000 0.70499  0.92869  0.30967  Biso   1.000  C 
  C36      1.0000 0.62667  0.25346  0.64121  Biso   1.000  C 
  C37      1.0000 0.57594  0.25257  0.59322  Biso   1.000  C 
  C38      1.0000 0.22344  0.75189  0.22957  Biso   1.000  C 
  C39      1.0000 0.84457  0.42350  0.85269  Biso   1.000  C 
  C40      1.0000 0.79580  0.42477  0.81182  Biso   1.000  C 
  C41      1.0000 0.12575  0.75268  0.14287  Biso   1.000  C 
  C42      1.0000 0.34344  0.92365  0.35476  Biso   1.000  C 
  C43      1.0000 0.65654  0.92964  0.35147  Biso   1.000  C 
  C44      1.0000 0.29468  0.92454  0.31388  Biso   1.000  C 
  C45      1.0000 0.20602  0.42764  0.81194  Biso   1.000  C 
  C46      1.0000 0.15759  0.42867  0.85376  Biso   1.000  C 
  C47      1.0000 0.07514  0.75189  0.09453  Biso   1.000  C 
  C48      1.0000 0.85470  0.57310  0.18190  Biso   1.000  C 
  C49      1.0000 0.15654  0.92910  0.14877  Biso   1.000  C 
  C50      1.0000 0.20485  0.92800  0.19095  Biso   1.000  C 
  C51      1.0000 0.35539  0.07324  0.68288  Biso   1.000  C 
  C52      1.0000 0.64425  0.57604  0.31976  Biso   1.000  C 
  C53      1.0000 0.30723  0.07543  0.72537  Biso   1.000  C 
  C54      1.0000 0.19310  0.07603  0.77849  Biso   1.000  C 
  C55      1.0000 0.14508  0.07547  0.82145  Biso   1.000  C 
  C56      1.0000 0.80652  0.57586  0.22436  Biso   1.000  C 
  H1       1.0000 0.85854  0.05800  0.11432  Biso   1.000  H 
  H2       1.0000 0.85950  0.55790  0.88424  Biso   1.000  H 
  H3       1.0000 0.70567  0.94007  0.75309  Biso   1.000  H 
  H4       1.0000 0.62064  0.94027  0.67404  Biso   1.000  H 
  H5       1.0000 0.20438  0.43985  0.25566  Biso   1.000  H 
  H6       1.0000 0.11950  0.43989  0.17628  Biso   1.000  H 
  H7       1.0000 0.77204  0.56128  0.81264  Biso   1.000  H 
  H8       1.0000 0.62006  0.43953  0.32432  Biso   1.000  H 
  H9       1.0000 0.20597  0.93920  0.74711  Biso   1.000  H 
  H10      1.0000 0.14240  0.06510  0.11841  Biso   1.000  H 
  H11      1.0000 0.70519  0.43976  0.24552  Biso   1.000  H 
  H12      1.0000 0.35835  0.05839  0.38607  Biso   1.000  H 
  H13      1.0000 0.27089  0.06099  0.31446  Biso   1.000  H 
  H14      1.0000 0.12082  0.93912  0.82588  Biso   1.000  H 
  H15      1.0000 0.98087  0.73975  0.89597  Biso   1.000  H 
  H16      1.0000 0.77114  0.06079  0.18608  Biso   1.000  H 
  H17      1.0000 0.64215  0.06584  0.38154  Biso   1.000  H 
  H18      1.0000 0.35934  0.55923  0.61677  Biso   1.000  H 
  H19      1.0000 0.29218  0.43959  0.24486  Biso   1.000  H 
  H20      1.0000 0.87862  0.93553  0.81950  Biso   1.000  H 
  H21      1.0000 0.27198  0.56118  0.68874  Biso   1.000  H 
  H22      1.0000 0.29371  0.94010  0.75767  Biso   1.000  H 
  H23      1.0000 0.37892  0.93647  0.67992  Biso   1.000  H 
  H24      1.0000 0.79308  0.44110  0.25715  Biso   1.000  H 
  H25      1.0000 0.47911  0.24108  0.39717  Biso   1.000  H 
  H26      1.0000 0.48032  0.74153  0.60355  Biso   1.000  H 
  H27      1.0000 0.73011  0.56550  0.69066  Biso   1.000  H 
  H28      1.0000 0.87832  0.43650  0.17946  Biso   1.000  H 
  H29      1.0000 0.97985  0.24034  0.10329  Biso   1.000  H 
  H30      1.0000 0.22931  0.06439  0.19223  Biso   1.000  H 
  H31      1.0000 0.72929  0.06545  0.30836  Biso   1.000  H 
  H32      1.0000 0.23044  0.56412  0.81088  Biso   1.000  H 
  H33      1.0000 0.14329  0.56473  0.88404  Biso   1.000  H 
  H34      1.0000 0.37751  0.43544  0.32226  Biso   1.000  H 
  H35      1.0000 0.64305  0.56625  0.61723  Biso   1.000  H 
  H36      1.0000 0.79334  0.94055  0.74196  Biso   1.000  H 
  O1       1.0000 0.05809  0.42088  0.93049  Biso   1.000  O 
  O2       1.0000 0.44564  0.91496  0.42356  Biso   1.000  O 
  O3       1.0000 0.55713  0.92129  0.42869  Biso   1.000  O 
  O4       1.0000 0.94672  0.41364  0.92176  Biso   1.000  O 
  O5       1.0000 0.99900  0.24474  0.05095  Biso   1.000  O 
  O6       1.0000 0.49943  0.74574  0.55116  Biso   1.000  O 
  O7       1.0000 0.05394  0.08150  0.92084  Biso   1.000  O 
  O8       1.0000 0.55791  0.42175  0.56995  Biso   1.000  O 
  O9       1.0000 0.44412  0.57331  0.42275  Biso   1.000  O 
  O10      1.0000 0.55427  0.08221  0.57851  Biso   1.000  O 
  O11      1.0000 0.99945  0.74450  0.94881  Biso   1.000  O 
  O12      1.0000 0.55353  0.58170  0.42022  Biso   1.000  O 
  O13      1.0000 0.44652  0.41554  0.57803  Biso   1.000  O 
  O14      1.0000 0.44495  0.07388  0.57882  Biso   1.000  O 
  O15      1.0000 0.94601  0.91419  0.07692  Biso   1.000  O 
  O16      1.0000 0.05746  0.92113  0.07064  Biso   1.000  O 
  O17      1.0000 0.94403  0.57251  0.07709  Biso   1.000  O 
  O18      1.0000 0.94464  0.07204  0.92153  Biso   1.000  O 
  O19      1.0000 0.49884  0.24542  0.44899  Biso   1.000  O 
  O20      1.0000 0.05323  0.58180  0.08018  Biso   1.000  O 
