data_image0
_cell_length_a       23.009
_cell_length_b       6.67934
_cell_length_c       19.1939
_cell_angle_alpha    89.974
_cell_angle_beta     90.0027
_cell_angle_gamma    90.0085

_symmetry_space_group_name_H-M    "P 1"
_symmetry_int_tables_number       1

loop_
  _symmetry_equiv_pos_as_xyz
  'x, y, z'

loop_
  _atom_site_label
  _atom_site_occupancy
  _atom_site_fract_x
  _atom_site_fract_y
  _atom_site_fract_z
  _atom_site_thermal_displace_type
  _atom_site_B_iso_or_equiv
  _atom_site_type_symbol
  Al1      1.0000 0.99973  0.50366  0.00085  Biso   1.000  Al
  Al2      1.0000 0.49946  0.99087  0.50147  Biso   1.000  Al
  Al3      1.0000 0.99976  0.00358  0.99971  Biso   1.000  Al
  Al4      1.0000 0.49938  0.49088  0.49904  Biso   1.000  Al
  C1       1.0000 0.72379  0.74980  0.27357  Biso   1.000  C 
  C2       1.0000 0.64637  0.07078  0.66758  Biso   1.000  C 
  C3       1.0000 0.69296  0.07408  0.71372  Biso   1.000  C 
  C4       1.0000 0.62868  0.74525  0.36694  Biso   1.000  C 
  C5       1.0000 0.57841  0.74287  0.41607  Biso   1.000  C 
  C6       1.0000 0.22528  0.25232  0.77557  Biso   1.000  C 
  C7       1.0000 0.77358  0.75171  0.22488  Biso   1.000  C 
  C8       1.0000 0.78959  0.92723  0.18890  Biso   1.000  C 
  C9       1.0000 0.12994  0.25450  0.86856  Biso   1.000  C 
  C10      1.0000 0.07952  0.25451  0.91747  Biso   1.000  C 
  C11      1.0000 0.27360  0.75008  0.27563  Biso   1.000  C 
  C12      1.0000 0.83688  0.92942  0.14373  Biso   1.000  C 
  C13      1.0000 0.37025  0.24502  0.63365  Biso   1.000  C 
  C14      1.0000 0.19082  0.57756  0.21502  Biso   1.000  C 
  C15      1.0000 0.30614  0.57417  0.28661  Biso   1.000  C 
  C16      1.0000 0.35271  0.57098  0.33276  Biso   1.000  C 
  C17      1.0000 0.33868  0.42185  0.64461  Biso   1.000  C 
  C18      1.0000 0.92094  0.25484  0.91558  Biso   1.000  C 
  C19      1.0000 0.27510  0.25035  0.72695  Biso   1.000  C 
  C20      1.0000 0.80836  0.07809  0.78526  Biso   1.000  C 
  C21      1.0000 0.85483  0.07848  0.83156  Biso   1.000  C 
  C22      1.0000 0.77526  0.25223  0.77338  Biso   1.000  C 
  C23      1.0000 0.41973  0.74282  0.41702  Biso   1.000  C 
  C24      1.0000 0.87063  0.25464  0.86648  Biso   1.000  C 
  C25      1.0000 0.70874  0.42366  0.68810  Biso   1.000  C 
  C26      1.0000 0.29155  0.42366  0.69000  Biso   1.000  C 
  C27      1.0000 0.14445  0.57780  0.16860  Biso   1.000  C 
  C28      1.0000 0.36914  0.74529  0.36836  Biso   1.000  C 
  C29      1.0000 0.86908  0.75436  0.13200  Biso   1.000  C 
  C30      1.0000 0.42050  0.24252  0.58452  Biso   1.000  C 
  C31      1.0000 0.69128  0.57394  0.28479  Biso   1.000  C 
  C32      1.0000 0.66142  0.42205  0.64298  Biso   1.000  C 
  C33      1.0000 0.91970  0.75476  0.08335  Biso   1.000  C 
  C34      1.0000 0.72538  0.25019  0.72482  Biso   1.000  C 
  C35      1.0000 0.70745  0.92324  0.31043  Biso   1.000  C 
  C36      1.0000 0.62983  0.24517  0.63204  Biso   1.000  C 
  C37      1.0000 0.57921  0.24262  0.58340  Biso   1.000  C 
  C38      1.0000 0.22372  0.75204  0.22710  Biso   1.000  C 
  C39      1.0000 0.83842  0.42965  0.85469  Biso   1.000  C 
  C40      1.0000 0.79118  0.42760  0.80943  Biso   1.000  C 
  C41      1.0000 0.12857  0.75422  0.13385  Biso   1.000  C 
  C42      1.0000 0.33747  0.92199  0.35750  Biso   1.000  C 
  C43      1.0000 0.66033  0.92188  0.35584  Biso   1.000  C 
  C44      1.0000 0.29013  0.92346  0.31242  Biso   1.000  C 
  C45      1.0000 0.20919  0.42793  0.81135  Biso   1.000  C 
  C46      1.0000 0.16194  0.42989  0.85659  Biso   1.000  C 
  C47      1.0000 0.07839  0.75422  0.08463  Biso   1.000  C 
  C48      1.0000 0.85314  0.57800  0.16677  Biso   1.000  C 
  C49      1.0000 0.16051  0.92968  0.14590  Biso   1.000  C 
  C50      1.0000 0.20767  0.92770  0.19126  Biso   1.000  C 
  C51      1.0000 0.35395  0.07087  0.66950  Biso   1.000  C 
  C52      1.0000 0.64491  0.57087  0.33124  Biso   1.000  C 
  C53      1.0000 0.30757  0.07436  0.71592  Biso   1.000  C 
  C54      1.0000 0.19235  0.07787  0.78759  Biso   1.000  C 
  C55      1.0000 0.14588  0.07812  0.83387  Biso   1.000  C 
  C56      1.0000 0.80660  0.57744  0.21296  Biso   1.000  C 
  H1       1.0000 0.84896  0.06582  0.11608  Biso   1.000  H 
  H2       1.0000 0.85040  0.56588  0.88246  Biso   1.000  H 
  H3       1.0000 0.70373  0.93875  0.74276  Biso   1.000  H 
  H4       1.0000 0.62163  0.93377  0.65913  Biso   1.000  H 
  H5       1.0000 0.20110  0.44063  0.24341  Biso   1.000  H 
  H6       1.0000 0.11939  0.44200  0.15917  Biso   1.000  H 
  H7       1.0000 0.76540  0.56334  0.80297  Biso   1.000  H 
  H8       1.0000 0.62014  0.43400  0.33989  Biso   1.000  H 
  H9       1.0000 0.20266  0.94106  0.75919  Biso   1.000  H 
  H10      1.0000 0.14834  0.06607  0.11830  Biso   1.000  H 
  H11      1.0000 0.70186  0.43861  0.25568  Biso   1.000  H 
  H12      1.0000 0.35007  0.05669  0.38578  Biso   1.000  H 
  H13      1.0000 0.26477  0.06037  0.30664  Biso   1.000  H 
  H14      1.0000 0.12079  0.94233  0.84322  Biso   1.000  H 
  H15      1.0000 0.99630  0.75177  0.90826  Biso   1.000  H 
  H16      1.0000 0.76385  0.06303  0.19543  Biso   1.000  H 
  H17      1.0000 0.64792  0.05662  0.38420  Biso   1.000  H 
  H18      1.0000 0.35116  0.55640  0.61615  Biso   1.000  H 
  H19      1.0000 0.29547  0.43890  0.25750  Biso   1.000  H 
  H20      1.0000 0.87999  0.94280  0.84078  Biso   1.000  H 
  H21      1.0000 0.26628  0.56076  0.69586  Biso   1.000  H 
  H22      1.0000 0.29695  0.93927  0.74519  Biso   1.000  H 
  H23      1.0000 0.37867  0.93384  0.66101  Biso   1.000  H 
  H24      1.0000 0.79634  0.44054  0.24139  Biso   1.000  H 
  H25      1.0000 0.49914  0.23640  0.40811  Biso   1.000  H 
  H26      1.0000 0.49883  0.73623  0.59240  Biso   1.000  H 
  H27      1.0000 0.73399  0.56083  0.69395  Biso   1.000  H 
  H28      1.0000 0.87832  0.44235  0.15760  Biso   1.000  H 
  H29      1.0000 0.99552  0.25155  0.09223  Biso   1.000  H 
  H30      1.0000 0.23335  0.06365  0.19793  Biso   1.000  H 
  H31      1.0000 0.73281  0.06016  0.30450  Biso   1.000  H 
  H32      1.0000 0.23483  0.56391  0.80466  Biso   1.000  H 
  H33      1.0000 0.14972  0.56628  0.88411  Biso   1.000  H 
  H34      1.0000 0.37753  0.43415  0.34118  Biso   1.000  H 
  H35      1.0000 0.64876  0.55686  0.61476  Biso   1.000  H 
  H36      1.0000 0.79816  0.94128  0.75680  Biso   1.000  H 
  O1       1.0000 0.06005  0.42406  0.93703  Biso   1.000  O 
  O2       1.0000 0.43906  0.91174  0.43747  Biso   1.000  O 
  O3       1.0000 0.55914  0.91182  0.43656  Biso   1.000  O 
  O4       1.0000 0.93998  0.42465  0.93565  Biso   1.000  O 
  O5       1.0000 0.99921  0.25298  0.04204  Biso   1.000  O 
  O6       1.0000 0.49959  0.73956  0.54204  Biso   1.000  O 
  O7       1.0000 0.05937  0.08443  0.93549  Biso   1.000  O 
  O8       1.0000 0.55972  0.41154  0.56314  Biso   1.000  O 
  O9       1.0000 0.44016  0.57213  0.43400  Biso   1.000  O 
  O10      1.0000 0.55892  0.07189  0.56627  Biso   1.000  O 
  O11      1.0000 0.99989  0.75307  0.95847  Biso   1.000  O 
  O12      1.0000 0.55818  0.57223  0.43343  Biso   1.000  O 
  O13      1.0000 0.43963  0.41148  0.56379  Biso   1.000  O 
  O14      1.0000 0.44086  0.07194  0.56737  Biso   1.000  O 
  O15      1.0000 0.93885  0.92463  0.06345  Biso   1.000  O 
  O16      1.0000 0.05894  0.92380  0.06496  Biso   1.000  O 
  O17      1.0000 0.94033  0.58482  0.06588  Biso   1.000  O 
  O18      1.0000 0.94137  0.08483  0.93335  Biso   1.000  O 
  O19      1.0000 0.49919  0.23966  0.45849  Biso   1.000  O 
  O20      1.0000 0.05840  0.58418  0.06636  Biso   1.000  O 
