data_image0
_cell_length_a       26.501
_cell_length_b       6.65298
_cell_length_c       13.239
_cell_angle_alpha    89.9965
_cell_angle_beta     89.975
_cell_angle_gamma    90.5102

_symmetry_space_group_name_H-M    "P 1"
_symmetry_int_tables_number       1

loop_
  _symmetry_equiv_pos_as_xyz
  'x, y, z'

loop_
  _atom_site_label
  _atom_site_occupancy
  _atom_site_fract_x
  _atom_site_fract_y
  _atom_site_fract_z
  _atom_site_thermal_displace_type
  _atom_site_B_iso_or_equiv
  _atom_site_type_symbol
  Al1      1.0000 0.00050  0.49809  0.00264  Biso   1.000  Al
  Al2      1.0000 0.50045  0.99678  0.50289  Biso   1.000  Al
  Al3      1.0000 0.00038  0.99803  0.99837  Biso   1.000  Al
  Al4      1.0000 0.50042  0.49685  0.49880  Biso   1.000  Al
  C1       1.0000 0.69214  0.57682  0.26252  Biso   1.000  C 
  C2       1.0000 0.65473  0.42818  0.64930  Biso   1.000  C 
  C3       1.0000 0.92693  0.74611  0.11056  Biso   1.000  C 
  C4       1.0000 0.72487  0.25200  0.72719  Biso   1.000  C 
  C5       1.0000 0.70192  0.92689  0.30778  Biso   1.000  C 
  C6       1.0000 0.62519  0.25235  0.65248  Biso   1.000  C 
  C7       1.0000 0.57360  0.25131  0.60782  Biso   1.000  C 
  C8       1.0000 0.22292  0.75187  0.23402  Biso   1.000  C 
  C9       1.0000 0.84804  0.42529  0.84517  Biso   1.000  C 
  C10      1.0000 0.79885  0.42553  0.80867  Biso   1.000  C 
  C11      1.0000 0.12367  0.75362  0.15683  Biso   1.000  C 
  C12      1.0000 0.34643  0.92383  0.35120  Biso   1.000  C 
  C13      1.0000 0.29712  0.92441  0.31539  Biso   1.000  C 
  C14      1.0000 0.42820  0.24498  0.61384  Biso   1.000  C 
  C15      1.0000 0.20396  0.42527  0.81448  Biso   1.000  C 
  C16      1.0000 0.15477  0.42736  0.85093  Biso   1.000  C 
  C17      1.0000 0.07245  0.75286  0.11050  Biso   1.000  C 
  C18      1.0000 0.85359  0.57378  0.19607  Biso   1.000  C 
  C19      1.0000 0.15345  0.92887  0.15412  Biso   1.000  C 
  C20      1.0000 0.20247  0.92723  0.19145  Biso   1.000  C 
  C21      1.0000 0.35533  0.07218  0.70064  Biso   1.000  C 
  C22      1.0000 0.64336  0.57650  0.30131  Biso   1.000  C 
  C23      1.0000 0.30640  0.07373  0.73858  Biso   1.000  C 
  C24      1.0000 0.14508  0.07579  0.80706  Biso   1.000  C 
  C25      1.0000 0.80449  0.57557  0.23308  Biso   1.000  C 
  C26      1.0000 0.65287  0.92818  0.34503  Biso   1.000  C 
  C27      1.0000 0.87508  0.74832  0.15429  Biso   1.000  C 
  C28      1.0000 0.19401  0.07532  0.76906  Biso   1.000  C 
  C29      1.0000 0.14356  0.57781  0.19886  Biso   1.000  C 
  C30      1.0000 0.37505  0.74761  0.34733  Biso   1.000  C 
  C31      1.0000 0.72261  0.75132  0.26590  Biso   1.000  C 
  C32      1.0000 0.64555  0.07654  0.69349  Biso   1.000  C 
  C33      1.0000 0.69452  0.07724  0.73117  Biso   1.000  C 
  C34      1.0000 0.62329  0.75239  0.34291  Biso   1.000  C 
  C35      1.0000 0.22458  0.24953  0.77263  Biso   1.000  C 
  C36      1.0000 0.77495  0.75025  0.22757  Biso   1.000  C 
  C37      1.0000 0.79685  0.92407  0.18472  Biso   1.000  C 
  C38      1.0000 0.12498  0.25219  0.84805  Biso   1.000  C 
  C39      1.0000 0.07343  0.25233  0.89303  Biso   1.000  C 
  C40      1.0000 0.27515  0.75043  0.27288  Biso   1.000  C 
  C41      1.0000 0.84628  0.92395  0.14949  Biso   1.000  C 
  C42      1.0000 0.37663  0.24698  0.65874  Biso   1.000  C 
  C43      1.0000 0.57215  0.75137  0.38974  Biso   1.000  C 
  C44      1.0000 0.30450  0.57509  0.26840  Biso   1.000  C 
  C45      1.0000 0.19229  0.57782  0.23774  Biso   1.000  C 
  C46      1.0000 0.29855  0.42255  0.69093  Biso   1.000  C 
  C47      1.0000 0.70398  0.42724  0.68540  Biso   1.000  C 
  C48      1.0000 0.87680  0.24943  0.84139  Biso   1.000  C 
  C49      1.0000 0.77718  0.25156  0.76558  Biso   1.000  C 
  C50      1.0000 0.42682  0.74520  0.39128  Biso   1.000  C 
  C51      1.0000 0.80676  0.07693  0.76065  Biso   1.000  C 
  C52      1.0000 0.27684  0.24845  0.73389  Biso   1.000  C 
  C53      1.0000 0.92815  0.24658  0.88725  Biso   1.000  C 
  C54      1.0000 0.34781  0.42265  0.65478  Biso   1.000  C 
  C55      1.0000 0.35347  0.57287  0.30598  Biso   1.000  C 
  C56      1.0000 0.85560  0.07505  0.79892  Biso   1.000  C 
  H1       1.0000 0.27599  0.55805  0.68349  Biso   1.000  H 
  H2       1.0000 0.48508  0.74118  0.62967  Biso   1.000  H 
  H3       1.0000 0.29101  0.93844  0.77398  Biso   1.000  H 
  H4       1.0000 0.37783  0.93599  0.70365  Biso   1.000  H 
  H5       1.0000 0.78895  0.44060  0.26852  Biso   1.000  H 
  H6       1.0000 0.48359  0.24113  0.37271  Biso   1.000  H 
  H7       1.0000 0.72713  0.56295  0.67884  Biso   1.000  H 
  H8       1.0000 0.13902  0.56294  0.88414  Biso   1.000  H 
  H9       1.0000 0.98204  0.24221  0.12741  Biso   1.000  H 
  H10      1.0000 0.22584  0.06241  0.18514  Biso   1.000  H 
  H11      1.0000 0.72515  0.06251  0.31372  Biso   1.000  H 
  H12      1.0000 0.22730  0.56048  0.82080  Biso   1.000  H 
  H13      1.0000 0.37580  0.43625  0.30300  Biso   1.000  H 
  H14      1.0000 0.63874  0.56332  0.61611  Biso   1.000  H 
  H15      1.0000 0.79142  0.94192  0.72492  Biso   1.000  H 
  H16      1.0000 0.87808  0.93882  0.79580  Biso   1.000  H 
  H17      1.0000 0.87608  0.43764  0.19983  Biso   1.000  H 
  H18      1.0000 0.28890  0.43989  0.23330  Biso   1.000  H 
  H19      1.0000 0.12163  0.94040  0.80507  Biso   1.000  H 
  H20      1.0000 0.63712  0.06350  0.37850  Biso   1.000  H 
  H21      1.0000 0.36423  0.55717  0.62058  Biso   1.000  H 
  H22      1.0000 0.86286  0.05830  0.11546  Biso   1.000  H 
  H23      1.0000 0.86440  0.55962  0.87961  Biso   1.000  H 
  H24      1.0000 0.70932  0.94126  0.76585  Biso   1.000  H 
  H25      1.0000 0.20670  0.44177  0.27303  Biso   1.000  H 
  H26      1.0000 0.12011  0.44240  0.20081  Biso   1.000  H 
  H27      1.0000 0.77630  0.56105  0.81608  Biso   1.000  H 
  H28      1.0000 0.62228  0.94069  0.69576  Biso   1.000  H 
  H29      1.0000 0.20860  0.93883  0.73450  Biso   1.000  H 
  H30      1.0000 0.13787  0.06411  0.12025  Biso   1.000  H 
  H31      1.0000 0.70672  0.44060  0.22767  Biso   1.000  H 
  H32      1.0000 0.36308  0.05834  0.38492  Biso   1.000  H 
  H33      1.0000 0.27476  0.06049  0.32264  Biso   1.000  H 
  H34      1.0000 0.98318  0.74188  0.87304  Biso   1.000  H 
  H35      1.0000 0.62005  0.44068  0.29968  Biso   1.000  H 
  H36      1.0000 0.77435  0.05961  0.17673  Biso   1.000  H 
  O1       1.0000 0.55084  0.58136  0.40419  Biso   1.000  O 
  O2       1.0000 0.44882  0.41466  0.59454  Biso   1.000  O 
  O3       1.0000 0.44761  0.07373  0.59607  Biso   1.000  O 
  O4       1.0000 0.94636  0.57472  0.09317  Biso   1.000  O 
  O5       1.0000 0.05400  0.92210  0.08635  Biso   1.000  O 
  O6       1.0000 0.94723  0.07493  0.90560  Biso   1.000  O 
  O7       1.0000 0.99944  0.74638  0.93854  Biso   1.000  O 
  O8       1.0000 0.94771  0.91578  0.09186  Biso   1.000  O 
  O9       1.0000 0.55217  0.08124  0.59437  Biso   1.000  O 
  O10      1.0000 0.44758  0.91482  0.41006  Biso   1.000  O 
  O11      1.0000 0.55483  0.42060  0.58473  Biso   1.000  O 
  O12      1.0000 0.05170  0.08273  0.90620  Biso   1.000  O 
  O13      1.0000 0.49976  0.74526  0.56269  Biso   1.000  O 
  O14      1.0000 0.99880  0.24641  0.06240  Biso   1.000  O 
  O15      1.0000 0.94885  0.41595  0.90682  Biso   1.000  O 
  O16      1.0000 0.55365  0.92061  0.41378  Biso   1.000  O 
  O17      1.0000 0.05495  0.42187  0.91665  Biso   1.000  O 
  O18      1.0000 0.49893  0.24532  0.43907  Biso   1.000  O 
  O19      1.0000 0.44626  0.57379  0.40862  Biso   1.000  O 
  O20      1.0000 0.05097  0.58297  0.09670  Biso   1.000  O 
