data_image0
_cell_length_a       23.7417
_cell_length_b       6.64595
_cell_length_c       18.2193
_cell_angle_alpha    90.0128
_cell_angle_beta     90.0011
_cell_angle_gamma    90.4204

_symmetry_space_group_name_H-M    "P 1"
_symmetry_int_tables_number       1

loop_
  _symmetry_equiv_pos_as_xyz
  'x, y, z'

loop_
  _atom_site_label
  _atom_site_occupancy
  _atom_site_fract_x
  _atom_site_fract_y
  _atom_site_fract_z
  _atom_site_thermal_displace_type
  _atom_site_B_iso_or_equiv
  _atom_site_type_symbol
  Al1      1.0000 0.00102  0.49421  0.00164  Biso   1.000  Al
  Al2      1.0000 0.50112  0.99953  0.50130  Biso   1.000  Al
  Al3      1.0000 0.00106  0.99417  0.99849  Biso   1.000  Al
  Al4      1.0000 0.50109  0.49954  0.49903  Biso   1.000  Al
  C1       1.0000 0.72406  0.75301  0.27261  Biso   1.000  C 
  C2       1.0000 0.64565  0.07730  0.66976  Biso   1.000  C 
  C3       1.0000 0.69261  0.07721  0.71533  Biso   1.000  C 
  C4       1.0000 0.62834  0.75456  0.36453  Biso   1.000  C 
  C5       1.0000 0.57829  0.75414  0.41390  Biso   1.000  C 
  C6       1.0000 0.22551  0.25105  0.77515  Biso   1.000  C 
  C7       1.0000 0.77451  0.75093  0.22519  Biso   1.000  C 
  C8       1.0000 0.79208  0.92409  0.18668  Biso   1.000  C 
  C9       1.0000 0.12957  0.25093  0.86674  Biso   1.000  C 
  C10      1.0000 0.07909  0.25032  0.91535  Biso   1.000  C 
  C11      1.0000 0.27397  0.75066  0.27581  Biso   1.000  C 
  C12      1.0000 0.84008  0.92218  0.14292  Biso   1.000  C 
  C13      1.0000 0.37247  0.24903  0.63677  Biso   1.000  C 
  C14      1.0000 0.19075  0.57606  0.21838  Biso   1.000  C 
  C15      1.0000 0.30590  0.57463  0.28502  Biso   1.000  C 
  C16      1.0000 0.35332  0.57312  0.32976  Biso   1.000  C 
  C17      1.0000 0.34106  0.42528  0.64562  Biso   1.000  C 
  C18      1.0000 0.92321  0.24197  0.91163  Biso   1.000  C 
  C19      1.0000 0.27585  0.25063  0.72749  Biso   1.000  C 
  C20      1.0000 0.80803  0.07488  0.78066  Biso   1.000  C 
  C21      1.0000 0.85523  0.07130  0.82576  Biso   1.000  C 
  C22      1.0000 0.77580  0.25073  0.77290  Biso   1.000  C 
  C23      1.0000 0.42226  0.74764  0.41318  Biso   1.000  C 
  C24      1.0000 0.87253  0.24529  0.86330  Biso   1.000  C 
  C25      1.0000 0.70854  0.42944  0.68921  Biso   1.000  C 
  C26      1.0000 0.29322  0.42526  0.68968  Biso   1.000  C 
  C27      1.0000 0.14404  0.57527  0.17236  Biso   1.000  C 
  C28      1.0000 0.37110  0.74901  0.36571  Biso   1.000  C 
  C29      1.0000 0.87138  0.74533  0.13504  Biso   1.000  C 
  C30      1.0000 0.42323  0.24767  0.58854  Biso   1.000  C 
  C31      1.0000 0.69131  0.57761  0.28280  Biso   1.000  C 
  C32      1.0000 0.66101  0.43114  0.64461  Biso   1.000  C 
  C33      1.0000 0.92231  0.74206  0.08716  Biso   1.000  C 
  C34      1.0000 0.72529  0.25274  0.72561  Biso   1.000  C 
  C35      1.0000 0.70747  0.92949  0.30929  Biso   1.000  C 
  C36      1.0000 0.62931  0.25461  0.63417  Biso   1.000  C 
  C37      1.0000 0.57902  0.25428  0.58525  Biso   1.000  C 
  C38      1.0000 0.22364  0.75137  0.22812  Biso   1.000  C 
  C39      1.0000 0.84118  0.42205  0.85542  Biso   1.000  C 
  C40      1.0000 0.79325  0.42386  0.81154  Biso   1.000  C 
  C41      1.0000 0.12819  0.75141  0.13563  Biso   1.000  C 
  C42      1.0000 0.33982  0.92555  0.35680  Biso   1.000  C 
  C43      1.0000 0.66007  0.93103  0.35414  Biso   1.000  C 
  C44      1.0000 0.29175  0.92555  0.31315  Biso   1.000  C 
  C45      1.0000 0.20892  0.42669  0.81238  Biso   1.000  C 
  C46      1.0000 0.16143  0.42742  0.85706  Biso   1.000  C 
  C47      1.0000 0.07816  0.75060  0.08623  Biso   1.000  C 
  C48      1.0000 0.85389  0.57122  0.17230  Biso   1.000  C 
  C49      1.0000 0.16015  0.92764  0.14541  Biso   1.000  C 
  C50      1.0000 0.20741  0.92683  0.19052  Biso   1.000  C 
  C51      1.0000 0.35516  0.07347  0.67328  Biso   1.000  C 
  C52      1.0000 0.64448  0.57755  0.32857  Biso   1.000  C 
  C53      1.0000 0.30801  0.07506  0.71849  Biso   1.000  C 
  C54      1.0000 0.19280  0.07537  0.78492  Biso   1.000  C 
  C55      1.0000 0.14585  0.07449  0.83051  Biso   1.000  C 
  C56      1.0000 0.80661  0.57484  0.21726  Biso   1.000  C 
  H1       1.0000 0.85334  0.05651  0.11306  Biso   1.000  H 
  H2       1.0000 0.85433  0.55633  0.88542  Biso   1.000  H 
  H3       1.0000 0.70362  0.93981  0.74456  Biso   1.000  H 
  H4       1.0000 0.62057  0.94110  0.66160  Biso   1.000  H 
  H5       1.0000 0.20138  0.43956  0.24841  Biso   1.000  H 
  H6       1.0000 0.11879  0.43923  0.16468  Biso   1.000  H 
  H7       1.0000 0.76818  0.56043  0.80836  Biso   1.000  H 
  H8       1.0000 0.61937  0.44137  0.33663  Biso   1.000  H 
  H9       1.0000 0.20374  0.93865  0.75520  Biso   1.000  H 
  H10      1.0000 0.14776  0.06348  0.11624  Biso   1.000  H 
  H11      1.0000 0.70222  0.44037  0.25338  Biso   1.000  H 
  H12      1.0000 0.35318  0.06139  0.38570  Biso   1.000  H 
  H13      1.0000 0.26684  0.06233  0.30905  Biso   1.000  H 
  H14      1.0000 0.12070  0.93820  0.83815  Biso   1.000  H 
  H15      1.0000 0.97863  0.73788  0.90931  Biso   1.000  H 
  H16      1.0000 0.76709  0.06082  0.18996  Biso   1.000  H 
  H17      1.0000 0.64744  0.06757  0.38272  Biso   1.000  H 
  H18      1.0000 0.35409  0.56078  0.61629  Biso   1.000  H 
  H19      1.0000 0.29402  0.43828  0.25533  Biso   1.000  H 
  H20      1.0000 0.87976  0.93430  0.83165  Biso   1.000  H 
  H21      1.0000 0.26815  0.56168  0.69372  Biso   1.000  H 
  H22      1.0000 0.29646  0.93902  0.74856  Biso   1.000  H 
  H23      1.0000 0.37967  0.93674  0.66650  Biso   1.000  H 
  H24      1.0000 0.79495  0.44018  0.24807  Biso   1.000  H 
  H25      1.0000 0.47822  0.24480  0.40954  Biso   1.000  H 
  H26      1.0000 0.47918  0.74487  0.59115  Biso   1.000  H 
  H27      1.0000 0.73393  0.56607  0.69465  Biso   1.000  H 
  H28      1.0000 0.87837  0.43414  0.16638  Biso   1.000  H 
  H29      1.0000 0.97744  0.23797  0.09025  Biso   1.000  H 
  H30      1.0000 0.23299  0.06314  0.19543  Biso   1.000  H 
  H31      1.0000 0.73292  0.06600  0.30392  Biso   1.000  H 
  H32      1.0000 0.23437  0.56328  0.80746  Biso   1.000  H 
  H33      1.0000 0.14873  0.56343  0.88591  Biso   1.000  H 
  H34      1.0000 0.37770  0.43612  0.33659  Biso   1.000  H 
  H35      1.0000 0.64824  0.56787  0.61628  Biso   1.000  H 
  H36      1.0000 0.79646  0.94030  0.74973  Biso   1.000  H 
  O1       1.0000 0.06203  0.41937  0.93914  Biso   1.000  O 
  O2       1.0000 0.44305  0.91795  0.43164  Biso   1.000  O 
  O3       1.0000 0.56066  0.92359  0.43656  Biso   1.000  O 
  O4       1.0000 0.94449  0.41157  0.93001  Biso   1.000  O 
  O5       1.0000 0.99888  0.24260  0.04502  Biso   1.000  O 
  O6       1.0000 0.49952  0.74822  0.54505  Biso   1.000  O 
  O7       1.0000 0.05634  0.08042  0.92932  Biso   1.000  O 
  O8       1.0000 0.56124  0.42369  0.56279  Biso   1.000  O 
  O9       1.0000 0.44150  0.57617  0.43165  Biso   1.000  O 
  O10      1.0000 0.55721  0.08393  0.56965  Biso   1.000  O 
  O11      1.0000 0.99941  0.74254  0.95506  Biso   1.000  O 
  O12      1.0000 0.55654  0.58385  0.42969  Biso   1.000  O 
  O13      1.0000 0.44380  0.41798  0.56971  Biso   1.000  O 
  O14      1.0000 0.44230  0.07614  0.56980  Biso   1.000  O 
  O15      1.0000 0.94376  0.91160  0.06909  Biso   1.000  O 
  O16      1.0000 0.06136  0.91958  0.06210  Biso   1.000  O 
  O17      1.0000 0.94065  0.56986  0.06798  Biso   1.000  O 
  O18      1.0000 0.94148  0.06978  0.93092  Biso   1.000  O 
  O19      1.0000 0.49905  0.24823  0.45526  Biso   1.000  O 
  O20      1.0000 0.05555  0.58068  0.07187  Biso   1.000  O 
