data_image0
_cell_length_a       27.1492
_cell_length_b       6.65822
_cell_length_c       11.4308
_cell_angle_alpha    90.0575
_cell_angle_beta     89.9846
_cell_angle_gamma    91.1382

_symmetry_space_group_name_H-M    "P 1"
_symmetry_int_tables_number       1

loop_
  _symmetry_equiv_pos_as_xyz
  'x, y, z'

loop_
  _atom_site_label
  _atom_site_occupancy
  _atom_site_fract_x
  _atom_site_fract_y
  _atom_site_fract_z
  _atom_site_thermal_displace_type
  _atom_site_B_iso_or_equiv
  _atom_site_type_symbol
  Al1      1.0000 0.00035  0.49925  0.00196  Biso   1.000  Al
  Al2      1.0000 0.50029  0.99545  0.50328  Biso   1.000  Al
  Al3      1.0000 0.00035  0.99925  0.99615  Biso   1.000  Al
  Al4      1.0000 0.50034  0.49544  0.49718  Biso   1.000  Al
  C1       1.0000 0.69266  0.57896  0.25265  Biso   1.000  C 
  C2       1.0000 0.65395  0.42960  0.65173  Biso   1.000  C 
  C3       1.0000 0.92753  0.74439  0.12184  Biso   1.000  C 
  C4       1.0000 0.72472  0.25285  0.72820  Biso   1.000  C 
  C5       1.0000 0.70147  0.92804  0.30850  Biso   1.000  C 
  C6       1.0000 0.62463  0.25463  0.66183  Biso   1.000  C 
  C7       1.0000 0.57271  0.25391  0.61960  Biso   1.000  C 
  C8       1.0000 0.22246  0.75072  0.23755  Biso   1.000  C 
  C9       1.0000 0.85006  0.42355  0.84032  Biso   1.000  C 
  C10      1.0000 0.80064  0.42460  0.80849  Biso   1.000  C 
  C11      1.0000 0.12276  0.75661  0.16800  Biso   1.000  C 
  C12      1.0000 0.34796  0.91890  0.34985  Biso   1.000  C 
  C13      1.0000 0.29846  0.92036  0.31869  Biso   1.000  C 
  C14      1.0000 0.42920  0.24104  0.62815  Biso   1.000  C 
  C15      1.0000 0.20380  0.42710  0.81732  Biso   1.000  C 
  C16      1.0000 0.15435  0.43036  0.84872  Biso   1.000  C 
  C17      1.0000 0.07117  0.75757  0.12348  Biso   1.000  C 
  C18      1.0000 0.85232  0.57364  0.20790  Biso   1.000  C 
  C19      1.0000 0.15254  0.93051  0.15909  Biso   1.000  C 
  C20      1.0000 0.20173  0.92688  0.19262  Biso   1.000  C 
  C21      1.0000 0.35447  0.07093  0.71709  Biso   1.000  C 
  C22      1.0000 0.64354  0.57884  0.28725  Biso   1.000  C 
  C23      1.0000 0.30537  0.07396  0.75159  Biso   1.000  C 
  C24      1.0000 0.14543  0.07926  0.79571  Biso   1.000  C 
  C25      1.0000 0.80311  0.57643  0.24148  Biso   1.000  C 
  C26      1.0000 0.65217  0.92952  0.34134  Biso   1.000  C 
  C27      1.0000 0.87549  0.74754  0.16343  Biso   1.000  C 
  C28      1.0000 0.19473  0.07752  0.76271  Biso   1.000  C 
  C29      1.0000 0.14296  0.57989  0.21213  Biso   1.000  C 
  C30      1.0000 0.37515  0.74307  0.33773  Biso   1.000  C 
  C31      1.0000 0.72273  0.75291  0.26341  Biso   1.000  C 
  C32      1.0000 0.64549  0.07886  0.70539  Biso   1.000  C 
  C33      1.0000 0.69471  0.07882  0.73901  Biso   1.000  C 
  C34      1.0000 0.62282  0.75447  0.33167  Biso   1.000  C 
  C35      1.0000 0.22496  0.25099  0.77331  Biso   1.000  C 
  C36      1.0000 0.77520  0.75135  0.22928  Biso   1.000  C 
  C37      1.0000 0.79878  0.92444  0.18349  Biso   1.000  C 
  C38      1.0000 0.12476  0.25614  0.83853  Biso   1.000  C 
  C39      1.0000 0.07274  0.25722  0.87999  Biso   1.000  C 
  C40      1.0000 0.27482  0.74768  0.27237  Biso   1.000  C 
  C41      1.0000 0.84826  0.92336  0.15205  Biso   1.000  C 
  C42      1.0000 0.37744  0.24439  0.67154  Biso   1.000  C 
  C43      1.0000 0.57115  0.75347  0.37579  Biso   1.000  C 
  C44      1.0000 0.30262  0.57244  0.25997  Biso   1.000  C 
  C45      1.0000 0.19199  0.57778  0.24730  Biso   1.000  C 
  C46      1.0000 0.30082  0.42142  0.69248  Biso   1.000  C 
  C47      1.0000 0.70335  0.42802  0.68369  Biso   1.000  C 
  C48      1.0000 0.87730  0.24776  0.82888  Biso   1.000  C 
  C49      1.0000 0.77719  0.25155  0.76217  Biso   1.000  C 
  C50      1.0000 0.42732  0.74030  0.37829  Biso   1.000  C 
  C51      1.0000 0.80514  0.07678  0.74968  Biso   1.000  C 
  C52      1.0000 0.27742  0.24871  0.73920  Biso   1.000  C 
  C53      1.0000 0.92912  0.24429  0.87175  Biso   1.000  C 
  C54      1.0000 0.35018  0.42013  0.66017  Biso   1.000  C 
  C55      1.0000 0.35186  0.56930  0.29329  Biso   1.000  C 
  C56      1.0000 0.85427  0.07396  0.78375  Biso   1.000  C 
  H1       1.0000 0.27961  0.55674  0.67844  Biso   1.000  H 
  H2       1.0000 0.48540  0.73770  0.64956  Biso   1.000  H 
  H3       1.0000 0.28846  0.93982  0.79041  Biso   1.000  H 
  H4       1.0000 0.37574  0.93465  0.72559  Biso   1.000  H 
  H5       1.0000 0.78606  0.44199  0.27962  Biso   1.000  H 
  H6       1.0000 0.48301  0.23714  0.35234  Biso   1.000  H 
  H7       1.0000 0.72615  0.56303  0.67116  Biso   1.000  H 
  H8       1.0000 0.13815  0.56608  0.88400  Biso   1.000  H 
  H9       1.0000 0.98278  0.24158  0.14670  Biso   1.000  H 
  H10      1.0000 0.22491  0.06102  0.18084  Biso   1.000  H 
  H11      1.0000 0.72429  0.06305  0.32094  Biso   1.000  H 
  H12      1.0000 0.22678  0.56165  0.82977  Biso   1.000  H 
  H13      1.0000 0.37303  0.43280  0.28434  Biso   1.000  H 
  H14      1.0000 0.63761  0.56451  0.61597  Biso   1.000  H 
  H15      1.0000 0.78819  0.94242  0.71109  Biso   1.000  H 
  H16      1.0000 0.87553  0.93760  0.77519  Biso   1.000  H 
  H17      1.0000 0.87353  0.43719  0.21645  Biso   1.000  H 
  H18      1.0000 0.28550  0.43813  0.22169  Biso   1.000  H 
  H19      1.0000 0.12219  0.94445  0.78846  Biso   1.000  H 
  H20      1.0000 0.63594  0.06436  0.37765  Biso   1.000  H 
  H21      1.0000 0.36795  0.55338  0.62259  Biso   1.000  H 
  H22      1.0000 0.86617  0.05697  0.11529  Biso   1.000  H 
  H23      1.0000 0.86789  0.55704  0.87761  Biso   1.000  H 
  H24      1.0000 0.71008  0.94279  0.77605  Biso   1.000  H 
  H25      1.0000 0.20684  0.44090  0.28457  Biso   1.000  H 
  H26      1.0000 0.11960  0.44530  0.21849  Biso   1.000  H 
  H27      1.0000 0.77945  0.55999  0.82261  Biso   1.000  H 
  H28      1.0000 0.62245  0.94348  0.71271  Biso   1.000  H 
  H29      1.0000 0.20997  0.94066  0.72621  Biso   1.000  H 
  H30      1.0000 0.13674  0.06619  0.12286  Biso   1.000  H 
  H31      1.0000 0.70793  0.44299  0.21508  Biso   1.000  H 
  H32      1.0000 0.36593  0.05238  0.38675  Biso   1.000  H 
  H33      1.0000 0.27738  0.05597  0.33300  Biso   1.000  H 
  H34      1.0000 0.98497  0.74113  0.85009  Biso   1.000  H 
  H35      1.0000 0.62051  0.44337  0.28018  Biso   1.000  H 
  H36      1.0000 0.77766  0.06005  0.16966  Biso   1.000  H 
  O1       1.0000 0.54903  0.58387  0.38701  Biso   1.000  O 
  O2       1.0000 0.45063  0.41012  0.60937  Biso   1.000  O 
  O3       1.0000 0.44795  0.06958  0.60976  Biso   1.000  O 
  O4       1.0000 0.94627  0.57290  0.10352  Biso   1.000  O 
  O5       1.0000 0.05341  0.92681  0.09659  Biso   1.000  O 
  O6       1.0000 0.94768  0.07271  0.89059  Biso   1.000  O 
  O7       1.0000 0.99970  0.74729  0.92723  Biso   1.000  O 
  O8       1.0000 0.94921  0.91351  0.10469  Biso   1.000  O 
  O9       1.0000 0.55047  0.08442  0.60940  Biso   1.000  O 
  O10      1.0000 0.44885  0.90968  0.39570  Biso   1.000  O 
  O11      1.0000 0.55441  0.42278  0.59416  Biso   1.000  O 
  O12      1.0000 0.05011  0.08846  0.88929  Biso   1.000  O 
  O13      1.0000 0.49971  0.74367  0.57198  Biso   1.000  O 
  O14      1.0000 0.99867  0.24743  0.07086  Biso   1.000  O 
  O15      1.0000 0.95080  0.41324  0.88965  Biso   1.000  O 
  O16      1.0000 0.55295  0.92232  0.40193  Biso   1.000  O 
  O17      1.0000 0.05473  0.42659  0.90578  Biso   1.000  O 
  O18      1.0000 0.49861  0.24329  0.42850  Biso   1.000  O 
  O19      1.0000 0.44636  0.56909  0.39546  Biso   1.000  O 
  O20      1.0000 0.04866  0.58875  0.11270  Biso   1.000  O 
