data_image0
_cell_length_a       33.5464
_cell_length_b       7.96731
_cell_length_c       7.36834
_cell_angle_alpha    89.9939
_cell_angle_beta     89.9154
_cell_angle_gamma    90.0007

_symmetry_space_group_name_H-M    "P 1"
_symmetry_int_tables_number       1

loop_
  _symmetry_equiv_pos_as_xyz
  'x, y, z'

loop_
  _atom_site_label
  _atom_site_occupancy
  _atom_site_fract_x
  _atom_site_fract_y
  _atom_site_fract_z
  _atom_site_thermal_displace_type
  _atom_site_B_iso_or_equiv
  _atom_site_type_symbol
  C1       1.0000 0.86221  0.26521  0.00478  Biso   1.000  C 
  C2       1.0000 0.21173  0.29945  0.65747  Biso   1.000  C 
  C3       1.0000 0.17033  0.30714  0.65589  Biso   1.000  C 
  C4       1.0000 0.14842  0.26468  0.49952  Biso   1.000  C 
  C5       1.0000 0.64843  0.76470  0.49952  Biso   1.000  C 
  C6       1.0000 0.58152  0.83412  0.34434  Biso   1.000  C 
  C7       1.0000 0.36220  0.23478  0.50475  Biso   1.000  C 
  C8       1.0000 0.33975  0.18624  0.65778  Biso   1.000  C 
  C9       1.0000 0.84121  0.79511  0.35280  Biso   1.000  C 
  C10      1.0000 0.79971  0.80075  0.35175  Biso   1.000  C 
  C11      1.0000 0.93066  0.32678  0.14890  Biso   1.000  C 
  C12      1.0000 0.08152  0.33416  0.34433  Biso   1.000  C 
  C13      1.0000 0.77731  0.25129  0.00336  Biso   1.000  C 
  C14      1.0000 0.84122  0.20489  0.85284  Biso   1.000  C 
  C15      1.0000 0.60525  0.79221  0.49486  Biso   1.000  C 
  C16      1.0000 0.14842  0.73533  0.99950  Biso   1.000  C 
  C17      1.0000 0.29835  0.19392  0.65746  Biso   1.000  C 
  C18      1.0000 0.57897  0.18829  0.14202  Biso   1.000  C 
  C19      1.0000 0.08153  0.66585  0.84431  Biso   1.000  C 
  C20      1.0000 0.60526  0.20778  0.99485  Biso   1.000  C 
  C21      1.0000 0.43023  0.81891  0.85017  Biso   1.000  C 
  C22      1.0000 0.58152  0.16587  0.84433  Biso   1.000  C 
  C23      1.0000 0.66991  0.28958  0.84607  Biso   1.000  C 
  C24      1.0000 0.10525  0.29220  0.49485  Biso   1.000  C 
  C25      1.0000 0.93023  0.68113  0.35016  Biso   1.000  C 
  C26      1.0000 0.21141  0.79534  0.84706  Biso   1.000  C 
  C27      1.0000 0.17033  0.69287  0.15589  Biso   1.000  C 
  C28      1.0000 0.64843  0.23529  0.99952  Biso   1.000  C 
  C29      1.0000 0.67034  0.19281  0.15589  Biso   1.000  C 
  C30      1.0000 0.71173  0.20049  0.15748  Biso   1.000  C 
  C31      1.0000 0.21173  0.70055  0.15747  Biso   1.000  C 
  C32      1.0000 0.23328  0.74933  0.00217  Biso   1.000  C 
  C33      1.0000 0.43066  0.82674  0.14888  Biso   1.000  C 
  C34      1.0000 0.27730  0.24868  0.50335  Biso   1.000  C 
  C35      1.0000 0.40540  0.20759  0.50141  Biso   1.000  C 
  C36      1.0000 0.83975  0.31375  0.15780  Biso   1.000  C 
  C37      1.0000 0.90540  0.29240  0.00146  Biso   1.000  C 
  C38      1.0000 0.43067  0.17326  0.64886  Biso   1.000  C 
  C39      1.0000 0.29971  0.69928  0.85178  Biso   1.000  C 
  C40      1.0000 0.29971  0.30072  0.35175  Biso   1.000  C 
  C41      1.0000 0.34121  0.29508  0.35280  Biso   1.000  C 
  C42      1.0000 0.86221  0.73478  0.50475  Biso   1.000  C 
  C43      1.0000 0.83975  0.68623  0.65777  Biso   1.000  C 
  C44      1.0000 0.79835  0.69392  0.65745  Biso   1.000  C 
  C45      1.0000 0.34121  0.70491  0.85283  Biso   1.000  C 
  C46      1.0000 0.77730  0.74870  0.50333  Biso   1.000  C 
  C47      1.0000 0.93023  0.31887  0.85019  Biso   1.000  C 
  C48      1.0000 0.40539  0.79241  0.00144  Biso   1.000  C 
  C49      1.0000 0.16990  0.78961  0.84605  Biso   1.000  C 
  C50      1.0000 0.73329  0.24928  0.00218  Biso   1.000  C 
  C51      1.0000 0.71141  0.29530  0.84707  Biso   1.000  C 
  C52      1.0000 0.07896  0.31167  0.64202  Biso   1.000  C 
  C53      1.0000 0.10525  0.70782  0.99483  Biso   1.000  C 
  C54      1.0000 0.90540  0.70760  0.50142  Biso   1.000  C 
  C55      1.0000 0.21140  0.20467  0.34707  Biso   1.000  C 
  C56      1.0000 0.33975  0.81378  0.15778  Biso   1.000  C 
  C57      1.0000 0.23328  0.25068  0.50217  Biso   1.000  C 
  C58      1.0000 0.29835  0.80610  0.15745  Biso   1.000  C 
  C59      1.0000 0.27730  0.75133  0.00336  Biso   1.000  C 
  C60      1.0000 0.07896  0.68836  0.14199  Biso   1.000  C 
  C61      1.0000 0.66990  0.71042  0.34608  Biso   1.000  C 
  C62      1.0000 0.71140  0.70470  0.34706  Biso   1.000  C 
  C63      1.0000 0.16990  0.21040  0.34608  Biso   1.000  C 
  C64      1.0000 0.43023  0.18108  0.35014  Biso   1.000  C 
  C65      1.0000 0.67034  0.80718  0.65588  Biso   1.000  C 
  C66      1.0000 0.71173  0.79949  0.65746  Biso   1.000  C 
  C67      1.0000 0.73328  0.75071  0.50216  Biso   1.000  C 
  C68      1.0000 0.93066  0.67322  0.64887  Biso   1.000  C 
  C69      1.0000 0.79971  0.19925  0.85178  Biso   1.000  C 
  C70      1.0000 0.57897  0.81171  0.64204  Biso   1.000  C 
  C71      1.0000 0.36220  0.76523  0.00477  Biso   1.000  C 
  C72      1.0000 0.79835  0.30606  0.15747  Biso   1.000  C 
  H1       1.0000 0.08966  0.34021  0.20185  Biso   1.000  H 
  H2       1.0000 0.22776  0.66115  0.27899  Biso   1.000  H 
  H3       1.0000 0.08429  0.70747  0.28579  Biso   1.000  H 
  H4       1.0000 0.92320  0.31044  0.70673  Biso   1.000  H 
  H5       1.0000 0.65392  0.32829  0.72411  Biso   1.000  H 
  H6       1.0000 0.78195  0.34991  0.27637  Biso   1.000  H 
  H7       1.0000 0.28437  0.65082  0.73222  Biso   1.000  H 
  H8       1.0000 0.65482  0.14579  0.27578  Biso   1.000  H 
  H9       1.0000 0.72716  0.33908  0.72629  Biso   1.000  H 
  H10      1.0000 0.35481  0.86513  0.27656  Biso   1.000  H 
  H11      1.0000 0.28195  0.84998  0.27635  Biso   1.000  H 
  H12      1.0000 0.92432  0.67761  0.79324  Biso   1.000  H 
  H13      1.0000 0.58966  0.15986  0.70185  Biso   1.000  H 
  H14      1.0000 0.22776  0.33885  0.77897  Biso   1.000  H 
  H15      1.0000 0.78438  0.15079  0.73222  Biso   1.000  H 
  H16      1.0000 0.65391  0.67171  0.22413  Biso   1.000  H 
  H17      1.0000 0.08967  0.65980  0.70183  Biso   1.000  H 
  H18      1.0000 0.15481  0.64587  0.27577  Biso   1.000  H 
  H19      1.0000 0.85754  0.16154  0.73349  Biso   1.000  H 
  H20      1.0000 0.72715  0.66092  0.22629  Biso   1.000  H 
  H21      1.0000 0.42433  0.17770  0.79323  Biso   1.000  H 
  H22      1.0000 0.15482  0.35414  0.77577  Biso   1.000  H 
  H23      1.0000 0.92432  0.32239  0.29327  Biso   1.000  H 
  H24      1.0000 0.35753  0.66155  0.73348  Biso   1.000  H 
  H25      1.0000 0.42319  0.81052  0.70670  Biso   1.000  H 
  H26      1.0000 0.72777  0.16108  0.27899  Biso   1.000  H 
  H27      1.0000 0.22715  0.16090  0.22629  Biso   1.000  H 
  H28      1.0000 0.78437  0.84920  0.23218  Biso   1.000  H 
  H29      1.0000 0.42319  0.18945  0.20668  Biso   1.000  H 
  H30      1.0000 0.72777  0.83889  0.77896  Biso   1.000  H 
  H31      1.0000 0.15391  0.17169  0.22413  Biso   1.000  H 
  H32      1.0000 0.85481  0.63488  0.77657  Biso   1.000  H 
  H33      1.0000 0.65482  0.85419  0.77577  Biso   1.000  H 
  H34      1.0000 0.28195  0.15006  0.77638  Biso   1.000  H 
  H35      1.0000 0.85754  0.83847  0.23344  Biso   1.000  H 
  H36      1.0000 0.58431  0.79264  0.78585  Biso   1.000  H 
  H37      1.0000 0.58430  0.20736  0.28583  Biso   1.000  H 
  H38      1.0000 0.08430  0.29256  0.78582  Biso   1.000  H 
  H39      1.0000 0.58965  0.84012  0.20185  Biso   1.000  H 
  H40      1.0000 0.92320  0.68955  0.20670  Biso   1.000  H 
  H41      1.0000 0.28437  0.34917  0.23218  Biso   1.000  H 
  H42      1.0000 0.15392  0.82831  0.72409  Biso   1.000  H 
  H43      1.0000 0.42432  0.82232  0.29325  Biso   1.000  H 
  H44      1.0000 0.35753  0.33843  0.23343  Biso   1.000  H 
  H45      1.0000 0.85481  0.36509  0.27658  Biso   1.000  H 
  H46      1.0000 0.78195  0.65005  0.77636  Biso   1.000  H 
  H47      1.0000 0.22715  0.83910  0.72627  Biso   1.000  H 
  H48      1.0000 0.35482  0.13491  0.77658  Biso   1.000  H 
  N1       1.0000 0.96673  0.63015  0.40389  Biso   1.000  N 
  N2       1.0000 0.46700  0.12552  0.58967  Biso   1.000  N 
  N3       1.0000 0.96699  0.62550  0.58968  Biso   1.000  N 
  N4       1.0000 0.04467  0.62017  0.89884  Biso   1.000  N 
  N5       1.0000 0.46673  0.13011  0.40388  Biso   1.000  N 
  N6       1.0000 0.54302  0.86537  0.58396  Biso   1.000  N 
  N7       1.0000 0.96699  0.37451  0.08970  Biso   1.000  N 
  N8       1.0000 0.54467  0.87981  0.39888  Biso   1.000  N 
  N9       1.0000 0.04301  0.63467  0.08390  Biso   1.000  N 
  N10      1.0000 0.04302  0.36536  0.58393  Biso   1.000  N 
  N11      1.0000 0.54302  0.13463  0.08393  Biso   1.000  N 
  N12      1.0000 0.46673  0.86988  0.90390  Biso   1.000  N 
  N13      1.0000 0.96674  0.36986  0.90392  Biso   1.000  N 
  N14      1.0000 0.54467  0.12018  0.89886  Biso   1.000  N 
  N15      1.0000 0.46699  0.87448  0.08969  Biso   1.000  N 
  N16      1.0000 0.04467  0.37986  0.39886  Biso   1.000  N 
  Zn1      1.0000 0.50534  0.00561  0.24408  Biso   1.000  Zn
  Zn2      1.0000 0.00535  0.50565  0.24407  Biso   1.000  Zn
  Zn3      1.0000 0.50535  0.99438  0.74409  Biso   1.000  Zn
  Zn4      1.0000 0.00535  0.49436  0.74408  Biso   1.000  Zn
