data_image0
_cell_length_a       32.3392
_cell_length_b       13.5659
_cell_length_c       7.21474
_cell_angle_alpha    89.9926
_cell_angle_beta     90.1217
_cell_angle_gamma    89.9999

_symmetry_space_group_name_H-M    "P 1"
_symmetry_int_tables_number       1

loop_
  _symmetry_equiv_pos_as_xyz
  'x, y, z'

loop_
  _atom_site_label
  _atom_site_occupancy
  _atom_site_fract_x
  _atom_site_fract_y
  _atom_site_fract_z
  _atom_site_thermal_displace_type
  _atom_site_B_iso_or_equiv
  _atom_site_type_symbol
  C1       1.0000 0.86144  0.32715  0.00101  Biso   1.000  C 
  C2       1.0000 0.16737  0.71516  0.84143  Biso   1.000  C 
  C3       1.0000 0.40415  0.86242  0.00001  Biso   1.000  C 
  C4       1.0000 0.20855  0.25522  0.34145  Biso   1.000  C 
  C5       1.0000 0.29547  0.80767  0.15968  Biso   1.000  C 
  C6       1.0000 0.27713  0.76619  0.00076  Biso   1.000  C 
  C7       1.0000 0.92897  0.38645  0.84683  Biso   1.000  C 
  C8       1.0000 0.10651  0.63811  0.99912  Biso   1.000  C 
  C9       1.0000 0.77714  0.73382  0.50074  Biso   1.000  C 
  C10      1.0000 0.79548  0.69234  0.65967  Biso   1.000  C 
  C11      1.0000 0.83656  0.66220  0.65959  Biso   1.000  C 
  C12      1.0000 0.86144  0.67285  0.50096  Biso   1.000  C 
  C13      1.0000 0.34323  0.21513  0.34252  Biso   1.000  C 
  C14      1.0000 0.30202  0.24452  0.34227  Biso   1.000  C 
  C15      1.0000 0.30202  0.75549  0.84229  Biso   1.000  C 
  C16      1.0000 0.34323  0.78487  0.84254  Biso   1.000  C 
  C17      1.0000 0.90415  0.63759  0.50001  Biso   1.000  C 
  C18      1.0000 0.08113  0.61560  0.15130  Biso   1.000  C 
  C19      1.0000 0.33656  0.83782  0.15959  Biso   1.000  C 
  C20      1.0000 0.36144  0.82716  0.00097  Biso   1.000  C 
  C21      1.0000 0.79547  0.30767  0.15970  Biso   1.000  C 
  C22      1.0000 0.80202  0.25547  0.84232  Biso   1.000  C 
  C23      1.0000 0.92925  0.61273  0.65230  Biso   1.000  C 
  C24      1.0000 0.73342  0.76481  0.50068  Biso   1.000  C 
  C25      1.0000 0.71510  0.80539  0.66008  Biso   1.000  C 
  C26      1.0000 0.67405  0.83581  0.65973  Biso   1.000  C 
  C27      1.0000 0.21510  0.30538  0.66010  Biso   1.000  C 
  C28      1.0000 0.16737  0.28484  0.34145  Biso   1.000  C 
  C29      1.0000 0.70855  0.75521  0.34145  Biso   1.000  C 
  C30      1.0000 0.66737  0.78483  0.34144  Biso   1.000  C 
  C31      1.0000 0.83656  0.33782  0.15961  Biso   1.000  C 
  C32      1.0000 0.58114  0.88441  0.65130  Biso   1.000  C 
  C33      1.0000 0.42897  0.11354  0.34679  Biso   1.000  C 
  C34      1.0000 0.23342  0.26480  0.50069  Biso   1.000  C 
  C35      1.0000 0.42926  0.11275  0.65228  Biso   1.000  C 
  C36      1.0000 0.73342  0.23519  0.00071  Biso   1.000  C 
  C37      1.0000 0.17405  0.33580  0.65975  Biso   1.000  C 
  C38      1.0000 0.40416  0.13760  0.50000  Biso   1.000  C 
  C39      1.0000 0.60651  0.86188  0.49912  Biso   1.000  C 
  C40      1.0000 0.84323  0.28486  0.84258  Biso   1.000  C 
  C41      1.0000 0.77713  0.26618  0.00078  Biso   1.000  C 
  C42      1.0000 0.08203  0.38865  0.34594  Biso   1.000  C 
  C43      1.0000 0.92925  0.38726  0.15233  Biso   1.000  C 
  C44      1.0000 0.80202  0.74452  0.34226  Biso   1.000  C 
  C45      1.0000 0.14918  0.67371  0.00038  Biso   1.000  C 
  C46      1.0000 0.84323  0.71513  0.34252  Biso   1.000  C 
  C47      1.0000 0.36144  0.17284  0.50097  Biso   1.000  C 
  C48      1.0000 0.42925  0.88728  0.15229  Biso   1.000  C 
  C49      1.0000 0.58113  0.11561  0.15130  Biso   1.000  C 
  C50      1.0000 0.58203  0.88864  0.34592  Biso   1.000  C 
  C51      1.0000 0.64918  0.82628  0.50037  Biso   1.000  C 
  C52      1.0000 0.14918  0.32629  0.50038  Biso   1.000  C 
  C53      1.0000 0.33656  0.16218  0.65958  Biso   1.000  C 
  C54      1.0000 0.29548  0.19232  0.65968  Biso   1.000  C 
  C55      1.0000 0.23342  0.73520  0.00070  Biso   1.000  C 
  C56      1.0000 0.08203  0.61135  0.84593  Biso   1.000  C 
  C57      1.0000 0.27714  0.23381  0.50075  Biso   1.000  C 
  C58      1.0000 0.21510  0.69461  0.16011  Biso   1.000  C 
  C59      1.0000 0.17404  0.66419  0.15975  Biso   1.000  C 
  C60      1.0000 0.90415  0.36241  0.00005  Biso   1.000  C 
  C61      1.0000 0.71509  0.19461  0.16013  Biso   1.000  C 
  C62      1.0000 0.67404  0.16419  0.15977  Biso   1.000  C 
  C63      1.0000 0.64918  0.17371  0.00039  Biso   1.000  C 
  C64      1.0000 0.08114  0.38440  0.65131  Biso   1.000  C 
  C65      1.0000 0.20855  0.74478  0.84145  Biso   1.000  C 
  C66      1.0000 0.92897  0.61354  0.34680  Biso   1.000  C 
  C67      1.0000 0.10651  0.36189  0.49914  Biso   1.000  C 
  C68      1.0000 0.66737  0.21516  0.84144  Biso   1.000  C 
  C69      1.0000 0.58203  0.11135  0.84592  Biso   1.000  C 
  C70      1.0000 0.70856  0.24477  0.84147  Biso   1.000  C 
  C71      1.0000 0.42897  0.88646  0.84679  Biso   1.000  C 
  C72      1.0000 0.60651  0.13812  0.99913  Biso   1.000  C 
  H1       1.0000 0.42288  0.88142  0.29953  Biso   1.000  H 
  H2       1.0000 0.42197  0.11805  0.19982  Biso   1.000  H 
  H3       1.0000 0.14878  0.27430  0.21660  Biso   1.000  H 
  H4       1.0000 0.86181  0.72655  0.21828  Biso   1.000  H 
  H5       1.0000 0.66138  0.87039  0.78381  Biso   1.000  H 
  H6       1.0000 0.73378  0.81635  0.78449  Biso   1.000  H 
  H7       1.0000 0.84925  0.62703  0.78327  Biso   1.000  H 
  H8       1.0000 0.73377  0.18366  0.28456  Biso   1.000  H 
  H9       1.0000 0.78909  0.77882  0.21822  Biso   1.000  H 
  H10      1.0000 0.58719  0.87599  0.79850  Biso   1.000  H 
  H11      1.0000 0.28909  0.27883  0.21823  Biso   1.000  H 
  H12      1.0000 0.08719  0.37598  0.79852  Biso   1.000  H 
  H13      1.0000 0.84924  0.37300  0.28328  Biso   1.000  H 
  H14      1.0000 0.36181  0.22656  0.21829  Biso   1.000  H 
  H15      1.0000 0.92197  0.61806  0.19983  Biso   1.000  H 
  H16      1.0000 0.22148  0.77837  0.71695  Biso   1.000  H 
  H17      1.0000 0.27679  0.18054  0.78345  Biso   1.000  H 
  H18      1.0000 0.77679  0.68057  0.78345  Biso   1.000  H 
  H19      1.0000 0.58934  0.88656  0.19921  Biso   1.000  H 
  H20      1.0000 0.34925  0.12700  0.78325  Biso   1.000  H 
  H21      1.0000 0.14879  0.72571  0.71657  Biso   1.000  H 
  H22      1.0000 0.22147  0.22164  0.21696  Biso   1.000  H 
  H23      1.0000 0.42198  0.88194  0.69982  Biso   1.000  H 
  H24      1.0000 0.58718  0.12404  0.29849  Biso   1.000  H 
  H25      1.0000 0.08934  0.38658  0.19922  Biso   1.000  H 
  H26      1.0000 0.36181  0.77345  0.71831  Biso   1.000  H 
  H27      1.0000 0.92288  0.38140  0.29957  Biso   1.000  H 
  H28      1.0000 0.92198  0.38194  0.69986  Biso   1.000  H 
  H29      1.0000 0.72148  0.27835  0.71697  Biso   1.000  H 
  H30      1.0000 0.28909  0.72119  0.71826  Biso   1.000  H 
  H31      1.0000 0.23377  0.68366  0.28454  Biso   1.000  H 
  H32      1.0000 0.64879  0.22570  0.71657  Biso   1.000  H 
  H33      1.0000 0.08718  0.62402  0.29849  Biso   1.000  H 
  H34      1.0000 0.16138  0.37037  0.78383  Biso   1.000  H 
  H35      1.0000 0.77678  0.31945  0.28346  Biso   1.000  H 
  H36      1.0000 0.34924  0.87299  0.28326  Biso   1.000  H 
  H37      1.0000 0.08935  0.61343  0.69922  Biso   1.000  H 
  H38      1.0000 0.92289  0.61858  0.79954  Biso   1.000  H 
  H39      1.0000 0.78910  0.22117  0.71829  Biso   1.000  H 
  H40      1.0000 0.64878  0.77428  0.21660  Biso   1.000  H 
  H41      1.0000 0.42289  0.11861  0.79953  Biso   1.000  H 
  H42      1.0000 0.58935  0.11342  0.69921  Biso   1.000  H 
  H43      1.0000 0.66137  0.12962  0.28387  Biso   1.000  H 
  H44      1.0000 0.72147  0.72163  0.21696  Biso   1.000  H 
  H45      1.0000 0.23378  0.31633  0.78451  Biso   1.000  H 
  H46      1.0000 0.27678  0.81944  0.28344  Biso   1.000  H 
  H47      1.0000 0.16137  0.62961  0.28385  Biso   1.000  H 
  H48      1.0000 0.86182  0.27343  0.71836  Biso   1.000  H 
  N1       1.0000 0.04485  0.57782  0.09250  Biso   1.000  N 
  N2       1.0000 0.54484  0.07783  0.09250  Biso   1.000  N 
  N3       1.0000 0.04545  0.42505  0.40344  Biso   1.000  N 
  N4       1.0000 0.04485  0.42218  0.59252  Biso   1.000  N 
  N5       1.0000 0.54545  0.07495  0.90341  Biso   1.000  N 
  N6       1.0000 0.46569  0.92386  0.09352  Biso   1.000  N 
  N7       1.0000 0.96549  0.42350  0.90437  Biso   1.000  N 
  N8       1.0000 0.46549  0.92351  0.90434  Biso   1.000  N 
  N9       1.0000 0.04545  0.57495  0.90341  Biso   1.000  N 
  N10      1.0000 0.46549  0.07649  0.40433  Biso   1.000  N 
  N11      1.0000 0.96569  0.57614  0.59353  Biso   1.000  N 
  N12      1.0000 0.96549  0.57649  0.40434  Biso   1.000  N 
  N13      1.0000 0.46569  0.07616  0.59351  Biso   1.000  N 
  N14      1.0000 0.96569  0.42385  0.09355  Biso   1.000  N 
  N15      1.0000 0.54545  0.92504  0.40341  Biso   1.000  N 
  N16      1.0000 0.54485  0.92218  0.59251  Biso   1.000  N 
  Zn1      1.0000 0.50538  0.99888  0.74839  Biso   1.000  Zn
  Zn2      1.0000 0.50537  0.00111  0.24839  Biso   1.000  Zn
  Zn3      1.0000 0.00538  0.50111  0.24841  Biso   1.000  Zn
  Zn4      1.0000 0.00538  0.49888  0.74840  Biso   1.000  Zn
