data_image0
_cell_length_a       25.139
_cell_length_b       24.9388
_cell_length_c       7.38174
_cell_angle_alpha    89.9756
_cell_angle_beta     90.4192
_cell_angle_gamma    89.9992

_symmetry_space_group_name_H-M    "P 1"
_symmetry_int_tables_number       1

loop_
  _symmetry_equiv_pos_as_xyz
  'x, y, z'

loop_
  _atom_site_label
  _atom_site_occupancy
  _atom_site_fract_x
  _atom_site_fract_y
  _atom_site_fract_z
  _atom_site_thermal_displace_type
  _atom_site_B_iso_or_equiv
  _atom_site_type_symbol
  C1       1.0000 0.85738  0.35082  0.00005  Biso   1.000  C 
  C2       1.0000 0.39861  0.89232  0.99975  Biso   1.000  C 
  C3       1.0000 0.20400  0.28226  0.34400  Biso   1.000  C 
  C4       1.0000 0.28716  0.80158  0.15504  Biso   1.000  C 
  C5       1.0000 0.27646  0.77024  0.00045  Biso   1.000  C 
  C6       1.0000 0.08675  0.58313  0.14880  Biso   1.000  C 
  C7       1.0000 0.92367  0.41635  0.85050  Biso   1.000  C 
  C8       1.0000 0.11195  0.60707  0.99967  Biso   1.000  C 
  C9       1.0000 0.77646  0.72976  0.50036  Biso   1.000  C 
  C10      1.0000 0.78719  0.69841  0.65499  Biso   1.000  C 
  C11      1.0000 0.82644  0.65905  0.65462  Biso   1.000  C 
  C12      1.0000 0.85740  0.64920  0.49996  Biso   1.000  C 
  C13      1.0000 0.34692  0.18080  0.34568  Biso   1.000  C 
  C14      1.0000 0.30738  0.21987  0.34573  Biso   1.000  C 
  C15      1.0000 0.30741  0.78014  0.84585  Biso   1.000  C 
  C16      1.0000 0.34694  0.81922  0.84582  Biso   1.000  C 
  C17      1.0000 0.89865  0.60772  0.49966  Biso   1.000  C 
  C18      1.0000 0.42361  0.08362  0.35042  Biso   1.000  C 
  C19      1.0000 0.32640  0.84094  0.15467  Biso   1.000  C 
  C20      1.0000 0.78716  0.30157  0.15504  Biso   1.000  C 
  C21      1.0000 0.35738  0.85082  0.00005  Biso   1.000  C 
  C22      1.0000 0.80742  0.28013  0.84585  Biso   1.000  C 
  C23      1.0000 0.92283  0.58206  0.64875  Biso   1.000  C 
  C24      1.0000 0.73447  0.77123  0.50034  Biso   1.000  C 
  C25      1.0000 0.72325  0.80139  0.65662  Biso   1.000  C 
  C26      1.0000 0.68390  0.84066  0.65627  Biso   1.000  C 
  C27      1.0000 0.18390  0.34067  0.65628  Biso   1.000  C 
  C28      1.0000 0.16437  0.32124  0.34391  Biso   1.000  C 
  C29      1.0000 0.70400  0.78226  0.34397  Biso   1.000  C 
  C30      1.0000 0.66437  0.82124  0.34390  Biso   1.000  C 
  C31      1.0000 0.22325  0.30140  0.65665  Biso   1.000  C 
  C32      1.0000 0.82640  0.34094  0.15467  Biso   1.000  C 
  C33      1.0000 0.58679  0.91687  0.64886  Biso   1.000  C 
  C34      1.0000 0.23448  0.27124  0.50037  Biso   1.000  C 
  C35      1.0000 0.42282  0.08206  0.64876  Biso   1.000  C 
  C36      1.0000 0.16440  0.67878  0.84386  Biso   1.000  C 
  C37      1.0000 0.15337  0.35162  0.49994  Biso   1.000  C 
  C38      1.0000 0.39864  0.10771  0.49966  Biso   1.000  C 
  C39      1.0000 0.61193  0.89291  0.49972  Biso   1.000  C 
  C40      1.0000 0.84695  0.31921  0.84583  Biso   1.000  C 
  C41      1.0000 0.77646  0.27024  0.00045  Biso   1.000  C 
  C42      1.0000 0.08758  0.41834  0.35050  Biso   1.000  C 
  C43      1.0000 0.92270  0.41802  0.14882  Biso   1.000  C 
  C44      1.0000 0.80737  0.71987  0.34570  Biso   1.000  C 
  C45      1.0000 0.15338  0.64837  0.99990  Biso   1.000  C 
  C46      1.0000 0.84692  0.68080  0.34566  Biso   1.000  C 
  C47      1.0000 0.35740  0.14919  0.49996  Biso   1.000  C 
  C48      1.0000 0.23448  0.72876  0.00041  Biso   1.000  C 
  C49      1.0000 0.42270  0.91803  0.14883  Biso   1.000  C 
  C50      1.0000 0.58674  0.08314  0.14884  Biso   1.000  C 
  C51      1.0000 0.58757  0.91834  0.35052  Biso   1.000  C 
  C52      1.0000 0.65336  0.85162  0.49994  Biso   1.000  C 
  C53      1.0000 0.32644  0.15905  0.65463  Biso   1.000  C 
  C54      1.0000 0.28719  0.19841  0.65502  Biso   1.000  C 
  C55      1.0000 0.22322  0.69858  0.15670  Biso   1.000  C 
  C56      1.0000 0.08766  0.58162  0.85048  Biso   1.000  C 
  C57      1.0000 0.27646  0.22976  0.50040  Biso   1.000  C 
  C58      1.0000 0.18388  0.65930  0.15630  Biso   1.000  C 
  C59      1.0000 0.89861  0.39232  0.99975  Biso   1.000  C 
  C60      1.0000 0.08679  0.41687  0.64883  Biso   1.000  C 
  C61      1.0000 0.72322  0.19857  0.15670  Biso   1.000  C 
  C62      1.0000 0.68389  0.15930  0.15631  Biso   1.000  C 
  C63      1.0000 0.65337  0.14837  0.99993  Biso   1.000  C 
  C64      1.0000 0.70403  0.21775  0.84399  Biso   1.000  C 
  C65      1.0000 0.20403  0.71776  0.84399  Biso   1.000  C 
  C66      1.0000 0.92362  0.58363  0.35041  Biso   1.000  C 
  C67      1.0000 0.11193  0.39291  0.49970  Biso   1.000  C 
  C68      1.0000 0.66441  0.17877  0.84388  Biso   1.000  C 
  C69      1.0000 0.58766  0.08161  0.85051  Biso   1.000  C 
  C70      1.0000 0.73448  0.22875  0.00040  Biso   1.000  C 
  C71      1.0000 0.61195  0.10707  0.99970  Biso   1.000  C 
  C72      1.0000 0.42367  0.91635  0.85051  Biso   1.000  C 
  H1       1.0000 0.41740  0.90960  0.70659  Biso   1.000  H 
  H2       1.0000 0.74685  0.79496  0.77936  Biso   1.000  H 
  H3       1.0000 0.87088  0.67545  0.22433  Biso   1.000  H 
  H4       1.0000 0.67753  0.86412  0.77896  Biso   1.000  H 
  H5       1.0000 0.80128  0.74432  0.22469  Biso   1.000  H 
  H6       1.0000 0.14071  0.32743  0.22115  Biso   1.000  H 
  H7       1.0000 0.41727  0.09032  0.20650  Biso   1.000  H 
  H8       1.0000 0.41636  0.91202  0.29279  Biso   1.000  H 
  H9       1.0000 0.83242  0.63467  0.77586  Biso   1.000  H 
  H10      1.0000 0.59232  0.90936  0.79269  Biso   1.000  H 
  H11      1.0000 0.83235  0.36531  0.27588  Biso   1.000  H 
  H12      1.0000 0.09233  0.40937  0.79267  Biso   1.000  H 
  H13      1.0000 0.33242  0.13467  0.77588  Biso   1.000  H 
  H14      1.0000 0.59478  0.91322  0.20667  Biso   1.000  H 
  H15      1.0000 0.76325  0.70394  0.77626  Biso   1.000  H 
  H16      1.0000 0.30129  0.24433  0.22474  Biso   1.000  H 
  H17      1.0000 0.59220  0.09067  0.29267  Biso   1.000  H 
  H18      1.0000 0.14076  0.67259  0.72106  Biso   1.000  H 
  H19      1.0000 0.21054  0.74130  0.72150  Biso   1.000  H 
  H20      1.0000 0.91728  0.59033  0.20649  Biso   1.000  H 
  H21      1.0000 0.37088  0.17545  0.22434  Biso   1.000  H 
  H22      1.0000 0.26325  0.20394  0.77629  Biso   1.000  H 
  H23      1.0000 0.21050  0.25874  0.22153  Biso   1.000  H 
  H24      1.0000 0.74680  0.20499  0.27948  Biso   1.000  H 
  H25      1.0000 0.91637  0.41202  0.29278  Biso   1.000  H 
  H26      1.0000 0.67749  0.13582  0.27902  Biso   1.000  H 
  H27      1.0000 0.17752  0.36413  0.77897  Biso   1.000  H 
  H28      1.0000 0.64076  0.17259  0.72108  Biso   1.000  H 
  H29      1.0000 0.30135  0.75570  0.72489  Biso   1.000  H 
  H30      1.0000 0.24679  0.70500  0.27949  Biso   1.000  H 
  H31      1.0000 0.76319  0.29604  0.27626  Biso   1.000  H 
  H32      1.0000 0.71055  0.24128  0.72149  Biso   1.000  H 
  H33      1.0000 0.91740  0.40960  0.70659  Biso   1.000  H 
  H34      1.0000 0.09492  0.58671  0.70664  Biso   1.000  H 
  H35      1.0000 0.09221  0.59066  0.29263  Biso   1.000  H 
  H36      1.0000 0.33235  0.86531  0.27590  Biso   1.000  H 
  H37      1.0000 0.37093  0.82458  0.72453  Biso   1.000  H 
  H38      1.0000 0.91658  0.58813  0.79272  Biso   1.000  H 
  H39      1.0000 0.17748  0.63583  0.27900  Biso   1.000  H 
  H40      1.0000 0.26319  0.79604  0.27626  Biso   1.000  H 
  H41      1.0000 0.24684  0.29497  0.77940  Biso   1.000  H 
  H42      1.0000 0.71050  0.75875  0.22149  Biso   1.000  H 
  H43      1.0000 0.09478  0.41322  0.20665  Biso   1.000  H 
  H44      1.0000 0.80136  0.25568  0.72489  Biso   1.000  H 
  H45      1.0000 0.87094  0.32457  0.72454  Biso   1.000  H 
  H46      1.0000 0.59492  0.08671  0.70667  Biso   1.000  H 
  H47      1.0000 0.41658  0.08812  0.79273  Biso   1.000  H 
  H48      1.0000 0.64071  0.82744  0.22114  Biso   1.000  H 
  N1       1.0000 0.05125  0.45428  0.40708  Biso   1.000  N 
  N2       1.0000 0.05067  0.45328  0.59217  Biso   1.000  N 
  N3       1.0000 0.55130  0.04568  0.90709  Biso   1.000  N 
  N4       1.0000 0.45891  0.95409  0.09212  Biso   1.000  N 
  N5       1.0000 0.45943  0.95313  0.90699  Biso   1.000  N 
  N6       1.0000 0.95943  0.45313  0.90698  Biso   1.000  N 
  N7       1.0000 0.05065  0.54672  0.09213  Biso   1.000  N 
  N8       1.0000 0.55065  0.04672  0.09217  Biso   1.000  N 
  N9       1.0000 0.55067  0.95327  0.59219  Biso   1.000  N 
  N10      1.0000 0.55124  0.95428  0.40710  Biso   1.000  N 
  N11      1.0000 0.45942  0.04687  0.40694  Biso   1.000  N 
  N12      1.0000 0.95900  0.54598  0.59208  Biso   1.000  N 
  N13      1.0000 0.05130  0.54568  0.90706  Biso   1.000  N 
  N14      1.0000 0.95942  0.54688  0.40693  Biso   1.000  N 
  N15      1.0000 0.45899  0.04598  0.59209  Biso   1.000  N 
  N16      1.0000 0.95891  0.45409  0.09212  Biso   1.000  N 
  Zn1      1.0000 0.00501  0.50060  0.24954  Biso   1.000  Zn
  Zn2      1.0000 0.50508  0.99940  0.74955  Biso   1.000  Zn
  Zn3      1.0000 0.50501  0.00059  0.24956  Biso   1.000  Zn
  Zn4      1.0000 0.00508  0.49940  0.74952  Biso   1.000  Zn
