data_image0
_cell_length_a       30.9975
_cell_length_b       16.7684
_cell_length_c       7.17687
_cell_angle_alpha    89.9979
_cell_angle_beta     90.0735
_cell_angle_gamma    89.9998

_symmetry_space_group_name_H-M    "P 1"
_symmetry_int_tables_number       1

loop_
  _symmetry_equiv_pos_as_xyz
  'x, y, z'

loop_
  _atom_site_label
  _atom_site_occupancy
  _atom_site_fract_x
  _atom_site_fract_y
  _atom_site_fract_z
  _atom_site_thermal_displace_type
  _atom_site_B_iso_or_equiv
  _atom_site_type_symbol
  C1       1.0000 0.86044  0.33965  0.00052  Biso   1.000  C 
  C2       1.0000 0.40291  0.87745  0.00009  Biso   1.000  C 
  C3       1.0000 0.20741  0.26682  0.34004  Biso   1.000  C 
  C4       1.0000 0.29348  0.80636  0.16030  Biso   1.000  C 
  C5       1.0000 0.27689  0.76883  0.00016  Biso   1.000  C 
  C6       1.0000 0.08248  0.59993  0.15310  Biso   1.000  C 
  C7       1.0000 0.92771  0.40156  0.84618  Biso   1.000  C 
  C8       1.0000 0.10776  0.62305  0.99985  Biso   1.000  C 
  C9       1.0000 0.77689  0.73116  0.50016  Biso   1.000  C 
  C10      1.0000 0.79349  0.69364  0.66031  Biso   1.000  C 
  C11      1.0000 0.83418  0.65879  0.66029  Biso   1.000  C 
  C12      1.0000 0.86044  0.66034  0.50049  Biso   1.000  C 
  C13      1.0000 0.34395  0.19818  0.34062  Biso   1.000  C 
  C14      1.0000 0.30309  0.23244  0.34028  Biso   1.000  C 
  C15      1.0000 0.30309  0.76757  0.84024  Biso   1.000  C 
  C16      1.0000 0.34394  0.80183  0.84059  Biso   1.000  C 
  C17      1.0000 0.90291  0.62254  0.50007  Biso   1.000  C 
  C18      1.0000 0.42772  0.09845  0.34620  Biso   1.000  C 
  C19      1.0000 0.33417  0.84121  0.16029  Biso   1.000  C 
  C20      1.0000 0.79349  0.30635  0.16033  Biso   1.000  C 
  C21      1.0000 0.36044  0.83966  0.00050  Biso   1.000  C 
  C22      1.0000 0.80309  0.26756  0.84026  Biso   1.000  C 
  C23      1.0000 0.92806  0.59869  0.65339  Biso   1.000  C 
  C24      1.0000 0.73363  0.76771  0.50016  Biso   1.000  C 
  C25      1.0000 0.71709  0.80500  0.66052  Biso   1.000  C 
  C26      1.0000 0.67644  0.84002  0.66046  Biso   1.000  C 
  C27      1.0000 0.17644  0.34003  0.66049  Biso   1.000  C 
  C28      1.0000 0.16660  0.30125  0.34031  Biso   1.000  C 
  C29      1.0000 0.70740  0.76679  0.34001  Biso   1.000  C 
  C30      1.0000 0.66659  0.80123  0.34028  Biso   1.000  C 
  C31      1.0000 0.21709  0.30501  0.66055  Biso   1.000  C 
  C32      1.0000 0.83418  0.34120  0.16032  Biso   1.000  C 
  C33      1.0000 0.58248  0.90007  0.65310  Biso   1.000  C 
  C34      1.0000 0.23363  0.26773  0.50019  Biso   1.000  C 
  C35      1.0000 0.42807  0.09869  0.65344  Biso   1.000  C 
  C36      1.0000 0.16660  0.69876  0.84028  Biso   1.000  C 
  C37      1.0000 0.15017  0.33890  0.50042  Biso   1.000  C 
  C38      1.0000 0.40292  0.12255  0.50012  Biso   1.000  C 
  C39      1.0000 0.60776  0.87695  0.49985  Biso   1.000  C 
  C40      1.0000 0.84394  0.30183  0.84061  Biso   1.000  C 
  C41      1.0000 0.77689  0.26883  0.00019  Biso   1.000  C 
  C42      1.0000 0.08320  0.40218  0.34595  Biso   1.000  C 
  C43      1.0000 0.92806  0.40131  0.15342  Biso   1.000  C 
  C44      1.0000 0.80309  0.73243  0.34023  Biso   1.000  C 
  C45      1.0000 0.15016  0.66112  0.00039  Biso   1.000  C 
  C46      1.0000 0.84394  0.69817  0.34057  Biso   1.000  C 
  C47      1.0000 0.36044  0.16035  0.50054  Biso   1.000  C 
  C48      1.0000 0.23363  0.73229  0.00016  Biso   1.000  C 
  C49      1.0000 0.42805  0.90133  0.15342  Biso   1.000  C 
  C50      1.0000 0.58248  0.09994  0.15313  Biso   1.000  C 
  C51      1.0000 0.58319  0.90216  0.34593  Biso   1.000  C 
  C52      1.0000 0.65016  0.83888  0.50038  Biso   1.000  C 
  C53      1.0000 0.33418  0.15880  0.66034  Biso   1.000  C 
  C54      1.0000 0.29349  0.19365  0.66035  Biso   1.000  C 
  C55      1.0000 0.21709  0.69500  0.16052  Biso   1.000  C 
  C56      1.0000 0.08320  0.59782  0.84592  Biso   1.000  C 
  C57      1.0000 0.27689  0.23118  0.50020  Biso   1.000  C 
  C58      1.0000 0.17643  0.65998  0.16046  Biso   1.000  C 
  C59      1.0000 0.90292  0.37745  0.00010  Biso   1.000  C 
  C60      1.0000 0.08248  0.40008  0.65313  Biso   1.000  C 
  C61      1.0000 0.71709  0.19499  0.16055  Biso   1.000  C 
  C62      1.0000 0.67644  0.15997  0.16049  Biso   1.000  C 
  C63      1.0000 0.65017  0.16111  0.00042  Biso   1.000  C 
  C64      1.0000 0.70741  0.23319  0.84003  Biso   1.000  C 
  C65      1.0000 0.20740  0.73320  0.84001  Biso   1.000  C 
  C66      1.0000 0.92771  0.59843  0.34616  Biso   1.000  C 
  C67      1.0000 0.10776  0.37696  0.49988  Biso   1.000  C 
  C68      1.0000 0.66660  0.19876  0.84031  Biso   1.000  C 
  C69      1.0000 0.58321  0.09780  0.84595  Biso   1.000  C 
  C70      1.0000 0.73363  0.23228  0.00019  Biso   1.000  C 
  C71      1.0000 0.60776  0.12304  0.99988  Biso   1.000  C 
  C72      1.0000 0.42772  0.90154  0.84618  Biso   1.000  C 
  H1       1.0000 0.42066  0.89703  0.69835  Biso   1.000  H 
  H2       1.0000 0.73704  0.80877  0.78558  Biso   1.000  H 
  H3       1.0000 0.86375  0.70205  0.21530  Biso   1.000  H 
  H4       1.0000 0.66531  0.87069  0.78558  Biso   1.000  H 
  H5       1.0000 0.79166  0.76271  0.21499  Biso   1.000  H 
  H6       1.0000 0.14676  0.29765  0.21487  Biso   1.000  H 
  H7       1.0000 0.42064  0.10294  0.19838  Biso   1.000  H 
  H8       1.0000 0.42181  0.89493  0.30148  Biso   1.000  H 
  H9       1.0000 0.84537  0.62800  0.78529  Biso   1.000  H 
  H10      1.0000 0.58853  0.89269  0.80113  Biso   1.000  H 
  H11      1.0000 0.84537  0.37199  0.28531  Biso   1.000  H 
  H12      1.0000 0.08853  0.39269  0.80116  Biso   1.000  H 
  H13      1.0000 0.34537  0.12801  0.78534  Biso   1.000  H 
  H14      1.0000 0.59045  0.89855  0.19822  Biso   1.000  H 
  H15      1.0000 0.77356  0.68960  0.78517  Biso   1.000  H 
  H16      1.0000 0.29167  0.26273  0.21503  Biso   1.000  H 
  H17      1.0000 0.58852  0.10733  0.30116  Biso   1.000  H 
  H18      1.0000 0.14676  0.70236  0.71484  Biso   1.000  H 
  H19      1.0000 0.21877  0.76334  0.71461  Biso   1.000  H 
  H20      1.0000 0.92064  0.60292  0.19833  Biso   1.000  H 
  H21      1.0000 0.36376  0.20207  0.21537  Biso   1.000  H 
  H22      1.0000 0.27356  0.18960  0.78520  Biso   1.000  H 
  H23      1.0000 0.21878  0.23668  0.21464  Biso   1.000  H 
  H24      1.0000 0.73704  0.19123  0.28561  Biso   1.000  H 
  H25      1.0000 0.92183  0.39488  0.30148  Biso   1.000  H 
  H26      1.0000 0.66531  0.12930  0.28561  Biso   1.000  H 
  H27      1.0000 0.16531  0.37070  0.78561  Biso   1.000  H 
  H28      1.0000 0.64676  0.20236  0.71487  Biso   1.000  H 
  H29      1.0000 0.29167  0.73728  0.71500  Biso   1.000  H 
  H30      1.0000 0.23703  0.69124  0.28559  Biso   1.000  H 
  H31      1.0000 0.77356  0.31040  0.28519  Biso   1.000  H 
  H32      1.0000 0.71878  0.26333  0.71464  Biso   1.000  H 
  H33      1.0000 0.92064  0.39707  0.69836  Biso   1.000  H 
  H34      1.0000 0.09046  0.60142  0.69821  Biso   1.000  H 
  H35      1.0000 0.08852  0.60732  0.30113  Biso   1.000  H 
  H36      1.0000 0.34536  0.87201  0.28528  Biso   1.000  H 
  H37      1.0000 0.36375  0.79793  0.71533  Biso   1.000  H 
  H38      1.0000 0.92183  0.60511  0.80145  Biso   1.000  H 
  H39      1.0000 0.16530  0.62931  0.28559  Biso   1.000  H 
  H40      1.0000 0.27355  0.81041  0.28515  Biso   1.000  H 
  H41      1.0000 0.23704  0.30877  0.78561  Biso   1.000  H 
  H42      1.0000 0.71877  0.73665  0.21462  Biso   1.000  H 
  H43      1.0000 0.09046  0.39858  0.19824  Biso   1.000  H 
  H44      1.0000 0.79167  0.23728  0.71503  Biso   1.000  H 
  H45      1.0000 0.86375  0.29794  0.71535  Biso   1.000  H 
  H46      1.0000 0.59047  0.10140  0.69825  Biso   1.000  H 
  H47      1.0000 0.42183  0.10511  0.80150  Biso   1.000  H 
  H48      1.0000 0.64676  0.79762  0.21485  Biso   1.000  H 
  N1       1.0000 0.04658  0.43755  0.40413  Biso   1.000  N 
  N2       1.0000 0.04608  0.43608  0.59406  Biso   1.000  N 
  N3       1.0000 0.54658  0.06244  0.90414  Biso   1.000  N 
  N4       1.0000 0.46459  0.93673  0.09439  Biso   1.000  N 
  N5       1.0000 0.46435  0.93700  0.90442  Biso   1.000  N 
  N6       1.0000 0.96434  0.43701  0.90441  Biso   1.000  N 
  N7       1.0000 0.04608  0.56392  0.09405  Biso   1.000  N 
  N8       1.0000 0.54608  0.06392  0.09407  Biso   1.000  N 
  N9       1.0000 0.54608  0.93608  0.59406  Biso   1.000  N 
  N10      1.0000 0.54657  0.93753  0.40413  Biso   1.000  N 
  N11      1.0000 0.46435  0.06299  0.40443  Biso   1.000  N 
  N12      1.0000 0.96460  0.56328  0.59437  Biso   1.000  N 
  N13      1.0000 0.04658  0.56246  0.90412  Biso   1.000  N 
  N14      1.0000 0.96434  0.56298  0.40439  Biso   1.000  N 
  N15      1.0000 0.46460  0.06328  0.59441  Biso   1.000  N 
  N16      1.0000 0.96460  0.43671  0.09438  Biso   1.000  N 
  Zn1      1.0000 0.00542  0.50032  0.24923  Biso   1.000  Zn
  Zn2      1.0000 0.50542  0.99967  0.74925  Biso   1.000  Zn
  Zn3      1.0000 0.50542  0.00032  0.24924  Biso   1.000  Zn
  Zn4      1.0000 0.00542  0.49967  0.74923  Biso   1.000  Zn
