data_image0
_cell_length_a       33.0143
_cell_length_b       11.2601
_cell_length_c       7.25198
_cell_angle_alpha    89.9877
_cell_angle_beta     90.1529
_cell_angle_gamma    90.0003

_symmetry_space_group_name_H-M    "P 1"
_symmetry_int_tables_number       1

loop_
  _symmetry_equiv_pos_as_xyz
  'x, y, z'

loop_
  _atom_site_label
  _atom_site_occupancy
  _atom_site_fract_x
  _atom_site_fract_y
  _atom_site_fract_z
  _atom_site_thermal_displace_type
  _atom_site_B_iso_or_equiv
  _atom_site_type_symbol
  C1       1.0000 0.86184  0.31235  0.00200  Biso   1.000  C 
  C2       1.0000 0.73336  0.23801  0.00137  Biso   1.000  C 
  C3       1.0000 0.16815  0.73360  0.84272  Biso   1.000  C 
  C4       1.0000 0.40474  0.84458  0.00033  Biso   1.000  C 
  C5       1.0000 0.20951  0.24269  0.34311  Biso   1.000  C 
  C6       1.0000 0.29665  0.80880  0.15897  Biso   1.000  C 
  C7       1.0000 0.92963  0.36794  0.84764  Biso   1.000  C 
  C8       1.0000 0.10589  0.65578  0.99819  Biso   1.000  C 
  C9       1.0000 0.77725  0.73736  0.50160  Biso   1.000  C 
  C10      1.0000 0.79666  0.69122  0.65901  Biso   1.000  C 
  C11      1.0000 0.83791  0.66632  0.65895  Biso   1.000  C 
  C12      1.0000 0.86184  0.68762  0.50194  Biso   1.000  C 
  C13      1.0000 0.34253  0.23506  0.34521  Biso   1.000  C 
  C14      1.0000 0.30117  0.25876  0.34481  Biso   1.000  C 
  C15      1.0000 0.30117  0.74127  0.84477  Biso   1.000  C 
  C16      1.0000 0.34253  0.76495  0.84521  Biso   1.000  C 
  C17      1.0000 0.90474  0.65541  0.50033  Biso   1.000  C 
  C18      1.0000 0.27724  0.76268  0.00158  Biso   1.000  C 
  C19      1.0000 0.33790  0.83369  0.15891  Biso   1.000  C 
  C20      1.0000 0.79666  0.30876  0.15903  Biso   1.000  C 
  C21      1.0000 0.36184  0.81238  0.00194  Biso   1.000  C 
  C22      1.0000 0.80118  0.24122  0.84485  Biso   1.000  C 
  C23      1.0000 0.92989  0.62845  0.65132  Biso   1.000  C 
  C24      1.0000 0.73336  0.76197  0.50133  Biso   1.000  C 
  C25      1.0000 0.71388  0.80594  0.65955  Biso   1.000  C 
  C26      1.0000 0.67262  0.83081  0.65889  Biso   1.000  C 
  C27      1.0000 0.83791  0.33366  0.15898  Biso   1.000  C 
  C28      1.0000 0.16816  0.26645  0.34283  Biso   1.000  C 
  C29      1.0000 0.70951  0.74268  0.34305  Biso   1.000  C 
  C30      1.0000 0.66816  0.76643  0.34278  Biso   1.000  C 
  C31      1.0000 0.58013  0.86445  0.64888  Biso   1.000  C 
  C32      1.0000 0.42962  0.13201  0.34757  Biso   1.000  C 
  C33      1.0000 0.08012  0.63559  0.14884  Biso   1.000  C 
  C34      1.0000 0.23336  0.26197  0.50139  Biso   1.000  C 
  C35      1.0000 0.42989  0.12847  0.65131  Biso   1.000  C 
  C36      1.0000 0.70952  0.25731  0.84306  Biso   1.000  C 
  C37      1.0000 0.21388  0.30594  0.65962  Biso   1.000  C 
  C38      1.0000 0.40475  0.15540  0.50033  Biso   1.000  C 
  C39      1.0000 0.60590  0.84423  0.49823  Biso   1.000  C 
  C40      1.0000 0.84254  0.26491  0.84528  Biso   1.000  C 
  C41      1.0000 0.77725  0.26262  0.00164  Biso   1.000  C 
  C42      1.0000 0.08172  0.37470  0.34559  Biso   1.000  C 
  C43      1.0000 0.92989  0.37154  0.15138  Biso   1.000  C 
  C44      1.0000 0.80117  0.75876  0.34477  Biso   1.000  C 
  C45      1.0000 0.14878  0.68828  0.00036  Biso   1.000  C 
  C46      1.0000 0.84253  0.73507  0.34519  Biso   1.000  C 
  C47      1.0000 0.36184  0.18762  0.50195  Biso   1.000  C 
  C48      1.0000 0.58012  0.13558  0.14885  Biso   1.000  C 
  C49      1.0000 0.58171  0.87468  0.34556  Biso   1.000  C 
  C50      1.0000 0.64878  0.81174  0.50040  Biso   1.000  C 
  C51      1.0000 0.14878  0.31175  0.50045  Biso   1.000  C 
  C52      1.0000 0.17263  0.33081  0.65896  Biso   1.000  C 
  C53      1.0000 0.33791  0.16631  0.65895  Biso   1.000  C 
  C54      1.0000 0.29667  0.19121  0.65904  Biso   1.000  C 
  C55      1.0000 0.42988  0.87153  0.15133  Biso   1.000  C 
  C56      1.0000 0.08172  0.62530  0.84553  Biso   1.000  C 
  C57      1.0000 0.27725  0.23736  0.50165  Biso   1.000  C 
  C58      1.0000 0.23336  0.73807  0.00129  Biso   1.000  C 
  C59      1.0000 0.21387  0.69410  0.15955  Biso   1.000  C 
  C60      1.0000 0.17262  0.66922  0.15888  Biso   1.000  C 
  C61      1.0000 0.71387  0.19404  0.15960  Biso   1.000  C 
  C62      1.0000 0.67262  0.16917  0.15893  Biso   1.000  C 
  C63      1.0000 0.64878  0.18825  0.00041  Biso   1.000  C 
  C64      1.0000 0.90475  0.34457  0.00039  Biso   1.000  C 
  C65      1.0000 0.20951  0.75736  0.84299  Biso   1.000  C 
  C66      1.0000 0.92962  0.63203  0.34758  Biso   1.000  C 
  C67      1.0000 0.10590  0.34425  0.49827  Biso   1.000  C 
  C68      1.0000 0.66816  0.23355  0.84278  Biso   1.000  C 
  C69      1.0000 0.58173  0.12529  0.84554  Biso   1.000  C 
  C70      1.0000 0.08012  0.36444  0.64891  Biso   1.000  C 
  C71      1.0000 0.60590  0.15576  0.99822  Biso   1.000  C 
  C72      1.0000 0.42963  0.86797  0.84759  Biso   1.000  C 
  H1       1.0000 0.73167  0.17514  0.28315  Biso   1.000  H 
  H2       1.0000 0.85155  0.62602  0.78109  Biso   1.000  H 
  H3       1.0000 0.73168  0.82483  0.78307  Biso   1.000  H 
  H4       1.0000 0.15044  0.24817  0.21880  Biso   1.000  H 
  H5       1.0000 0.86027  0.75494  0.22223  Biso   1.000  H 
  H6       1.0000 0.42263  0.13765  0.20149  Biso   1.000  H 
  H7       1.0000 0.78723  0.79731  0.22199  Biso   1.000  H 
  H8       1.0000 0.58587  0.14721  0.29518  Biso   1.000  H 
  H9       1.0000 0.65890  0.86956  0.78166  Biso   1.000  H 
  H10      1.0000 0.58589  0.85284  0.79522  Biso   1.000  H 
  H11      1.0000 0.22350  0.79439  0.71955  Biso   1.000  H 
  H12      1.0000 0.08588  0.35283  0.79525  Biso   1.000  H 
  H13      1.0000 0.28723  0.29732  0.22203  Biso   1.000  H 
  H14      1.0000 0.15043  0.75189  0.71868  Biso   1.000  H 
  H15      1.0000 0.35155  0.12601  0.78109  Biso   1.000  H 
  H16      1.0000 0.58940  0.87562  0.20014  Biso   1.000  H 
  H17      1.0000 0.22351  0.20569  0.21967  Biso   1.000  H 
  H18      1.0000 0.92263  0.63769  0.20150  Biso   1.000  H 
  H19      1.0000 0.36027  0.25494  0.22223  Biso   1.000  H 
  H20      1.0000 0.85154  0.37396  0.28110  Biso   1.000  H 
  H21      1.0000 0.77881  0.67072  0.78133  Biso   1.000  H 
  H22      1.0000 0.42265  0.86231  0.70151  Biso   1.000  H 
  H23      1.0000 0.42348  0.86665  0.29785  Biso   1.000  H 
  H24      1.0000 0.27882  0.17072  0.78138  Biso   1.000  H 
  H25      1.0000 0.65889  0.13041  0.28171  Biso   1.000  H 
  H26      1.0000 0.08941  0.62433  0.70012  Biso   1.000  H 
  H27      1.0000 0.08941  0.37565  0.20017  Biso   1.000  H 
  H28      1.0000 0.08587  0.64722  0.29517  Biso   1.000  H 
  H29      1.0000 0.65044  0.25184  0.71872  Biso   1.000  H 
  H30      1.0000 0.72352  0.29431  0.71961  Biso   1.000  H 
  H31      1.0000 0.28723  0.70274  0.72200  Biso   1.000  H 
  H32      1.0000 0.92264  0.36226  0.70157  Biso   1.000  H 
  H33      1.0000 0.77880  0.32927  0.28133  Biso   1.000  H 
  H34      1.0000 0.92348  0.36669  0.29790  Biso   1.000  H 
  H35      1.0000 0.23167  0.67522  0.28308  Biso   1.000  H 
  H36      1.0000 0.35154  0.87399  0.28104  Biso   1.000  H 
  H37      1.0000 0.15889  0.36955  0.78173  Biso   1.000  H 
  H38      1.0000 0.92349  0.63332  0.79784  Biso   1.000  H 
  H39      1.0000 0.72351  0.70567  0.21962  Biso   1.000  H 
  H40      1.0000 0.86028  0.24502  0.72234  Biso   1.000  H 
  H41      1.0000 0.15889  0.63046  0.28166  Biso   1.000  H 
  H42      1.0000 0.27880  0.82931  0.28127  Biso   1.000  H 
  H43      1.0000 0.36027  0.74506  0.72226  Biso   1.000  H 
  H44      1.0000 0.58942  0.12432  0.70013  Biso   1.000  H 
  H45      1.0000 0.42350  0.13335  0.79784  Biso   1.000  H 
  H46      1.0000 0.65043  0.74814  0.21875  Biso   1.000  H 
  H47      1.0000 0.78724  0.20267  0.72209  Biso   1.000  H 
  H48      1.0000 0.23168  0.32481  0.78314  Biso   1.000  H 
  N1       1.0000 0.96615  0.40769  0.90407  Biso   1.000  N 
  N2       1.0000 0.46615  0.90770  0.90404  Biso   1.000  N 
  N3       1.0000 0.04393  0.59461  0.09002  Biso   1.000  N 
  N4       1.0000 0.54393  0.09460  0.09001  Biso   1.000  N 
  N5       1.0000 0.04499  0.41211  0.40200  Biso   1.000  N 
  N6       1.0000 0.04394  0.40541  0.59006  Biso   1.000  N 
  N7       1.0000 0.46632  0.90972  0.09242  Biso   1.000  N 
  N8       1.0000 0.54499  0.08788  0.90195  Biso   1.000  N 
  N9       1.0000 0.46633  0.09028  0.59239  Biso   1.000  N 
  N10      1.0000 0.96633  0.59026  0.59241  Biso   1.000  N 
  N11      1.0000 0.96615  0.59230  0.40402  Biso   1.000  N 
  N12      1.0000 0.96632  0.40974  0.09245  Biso   1.000  N 
  N13      1.0000 0.54498  0.91210  0.40198  Biso   1.000  N 
  N14      1.0000 0.54394  0.90541  0.59005  Biso   1.000  N 
  N15      1.0000 0.46615  0.09228  0.40400  Biso   1.000  N 
  N16      1.0000 0.04499  0.58789  0.90195  Biso   1.000  N 
  Zn1      1.0000 0.50535  0.00262  0.24701  Biso   1.000  Zn
  Zn2      1.0000 0.00535  0.50263  0.24703  Biso   1.000  Zn
  Zn3      1.0000 0.50535  0.99737  0.74702  Biso   1.000  Zn
  Zn4      1.0000 0.00535  0.49736  0.74703  Biso   1.000  Zn
