data_image0
_cell_length_a       33.4427
_cell_length_b       9.03613
_cell_length_c       7.32788
_cell_angle_alpha    89.9886
_cell_angle_beta     89.9633
_cell_angle_gamma    89.9987

_symmetry_space_group_name_H-M    "P 1"
_symmetry_int_tables_number       1

loop_
  _symmetry_equiv_pos_as_xyz
  'x, y, z'

loop_
  _atom_site_label
  _atom_site_occupancy
  _atom_site_fract_x
  _atom_site_fract_y
  _atom_site_fract_z
  _atom_site_thermal_displace_type
  _atom_site_B_iso_or_equiv
  _atom_site_type_symbol
  C1       1.0000 0.86210  0.28684  0.00380  Biso   1.000  C 
  C2       1.0000 0.71073  0.27887  0.84570  Biso   1.000  C 
  C3       1.0000 0.73330  0.24408  0.00197  Biso   1.000  C 
  C4       1.0000 0.16927  0.76485  0.84481  Biso   1.000  C 
  C5       1.0000 0.40517  0.81559  0.00130  Biso   1.000  C 
  C6       1.0000 0.21073  0.22105  0.34576  Biso   1.000  C 
  C7       1.0000 0.93012  0.33946  0.84968  Biso   1.000  C 
  C8       1.0000 0.10548  0.68458  0.99592  Biso   1.000  C 
  C9       1.0000 0.77730  0.74323  0.50285  Biso   1.000  C 
  C10      1.0000 0.79771  0.69091  0.65781  Biso   1.000  C 
  C11      1.0000 0.83907  0.67543  0.65797  Biso   1.000  C 
  C12      1.0000 0.86210  0.71316  0.50378  Biso   1.000  C 
  C13      1.0000 0.34176  0.26847  0.35018  Biso   1.000  C 
  C14      1.0000 0.30030  0.28232  0.34943  Biso   1.000  C 
  C15      1.0000 0.30030  0.71767  0.84944  Biso   1.000  C 
  C16      1.0000 0.34177  0.73152  0.85018  Biso   1.000  C 
  C17      1.0000 0.90517  0.68444  0.50128  Biso   1.000  C 
  C18      1.0000 0.29770  0.80914  0.15781  Biso   1.000  C 
  C19      1.0000 0.33906  0.82460  0.15797  Biso   1.000  C 
  C20      1.0000 0.36210  0.78687  0.00379  Biso   1.000  C 
  C21      1.0000 0.79770  0.30906  0.15784  Biso   1.000  C 
  C22      1.0000 0.80031  0.21763  0.84943  Biso   1.000  C 
  C23      1.0000 0.93031  0.65321  0.65002  Biso   1.000  C 
  C24      1.0000 0.73330  0.75589  0.50194  Biso   1.000  C 
  C25      1.0000 0.71247  0.80393  0.65795  Biso   1.000  C 
  C26      1.0000 0.67111  0.81969  0.65655  Biso   1.000  C 
  C27      1.0000 0.57937  0.83448  0.64436  Biso   1.000  C 
  C28      1.0000 0.16927  0.23516  0.34487  Biso   1.000  C 
  C29      1.0000 0.71073  0.72112  0.34569  Biso   1.000  C 
  C30      1.0000 0.66927  0.73521  0.34483  Biso   1.000  C 
  C31      1.0000 0.43011  0.16048  0.34967  Biso   1.000  C 
  C32      1.0000 0.07936  0.66558  0.14431  Biso   1.000  C 
  C33      1.0000 0.27729  0.75681  0.00287  Biso   1.000  C 
  C34      1.0000 0.23329  0.25584  0.50199  Biso   1.000  C 
  C35      1.0000 0.43031  0.15325  0.65004  Biso   1.000  C 
  C36      1.0000 0.07937  0.33445  0.64436  Biso   1.000  C 
  C37      1.0000 0.83907  0.32455  0.15798  Biso   1.000  C 
  C38      1.0000 0.40517  0.18442  0.50131  Biso   1.000  C 
  C39      1.0000 0.60548  0.81545  0.49594  Biso   1.000  C 
  C40      1.0000 0.84177  0.23150  0.85018  Biso   1.000  C 
  C41      1.0000 0.77730  0.25674  0.00288  Biso   1.000  C 
  C42      1.0000 0.08158  0.35189  0.34471  Biso   1.000  C 
  C43      1.0000 0.93030  0.34683  0.15004  Biso   1.000  C 
  C44      1.0000 0.80031  0.78236  0.34938  Biso   1.000  C 
  C45      1.0000 0.14853  0.71365  0.99962  Biso   1.000  C 
  C46      1.0000 0.84177  0.76851  0.35013  Biso   1.000  C 
  C47      1.0000 0.36210  0.21315  0.50383  Biso   1.000  C 
  C48      1.0000 0.58157  0.85188  0.34470  Biso   1.000  C 
  C49      1.0000 0.64854  0.78639  0.49962  Biso   1.000  C 
  C50      1.0000 0.14853  0.28635  0.49966  Biso   1.000  C 
  C51      1.0000 0.17110  0.31965  0.65659  Biso   1.000  C 
  C52      1.0000 0.21246  0.30389  0.65800  Biso   1.000  C 
  C53      1.0000 0.33907  0.17544  0.65803  Biso   1.000  C 
  C54      1.0000 0.29771  0.19090  0.65788  Biso   1.000  C 
  C55      1.0000 0.57936  0.16554  0.14432  Biso   1.000  C 
  C56      1.0000 0.08158  0.64810  0.84467  Biso   1.000  C 
  C57      1.0000 0.27730  0.24319  0.50290  Biso   1.000  C 
  C58      1.0000 0.43030  0.84678  0.15004  Biso   1.000  C 
  C59      1.0000 0.23329  0.74416  0.00195  Biso   1.000  C 
  C60      1.0000 0.21246  0.69611  0.15798  Biso   1.000  C 
  C61      1.0000 0.71246  0.19604  0.15799  Biso   1.000  C 
  C62      1.0000 0.67110  0.18030  0.15658  Biso   1.000  C 
  C63      1.0000 0.64853  0.21360  0.99963  Biso   1.000  C 
  C64      1.0000 0.17110  0.68035  0.15657  Biso   1.000  C 
  C65      1.0000 0.21073  0.77895  0.84569  Biso   1.000  C 
  C66      1.0000 0.93012  0.66054  0.34965  Biso   1.000  C 
  C67      1.0000 0.10548  0.31543  0.49596  Biso   1.000  C 
  C68      1.0000 0.66927  0.26479  0.84482  Biso   1.000  C 
  C69      1.0000 0.58158  0.14809  0.84468  Biso   1.000  C 
  C70      1.0000 0.90517  0.31558  0.00130  Biso   1.000  C 
  C71      1.0000 0.43012  0.83950  0.84967  Biso   1.000  C 
  C72      1.0000 0.60548  0.18454  0.99593  Biso   1.000  C 
  H1       1.0000 0.58487  0.18135  0.28897  Biso   1.000  H 
  H2       1.0000 0.78549  0.82716  0.22877  Biso   1.000  H 
  H3       1.0000 0.42317  0.16800  0.20528  Biso   1.000  H 
  H4       1.0000 0.72915  0.83507  0.77999  Biso   1.000  H 
  H5       1.0000 0.15265  0.20500  0.22226  Biso   1.000  H 
  H6       1.0000 0.85358  0.62786  0.77771  Biso   1.000  H 
  H7       1.0000 0.65621  0.86425  0.77717  Biso   1.000  H 
  H8       1.0000 0.28072  0.15647  0.77779  Biso   1.000  H 
  H9       1.0000 0.85868  0.80191  0.22954  Biso   1.000  H 
  H10      1.0000 0.58489  0.81870  0.78900  Biso   1.000  H 
  H11      1.0000 0.58955  0.85608  0.20118  Biso   1.000  H 
  H12      1.0000 0.08488  0.31865  0.78901  Biso   1.000  H 
  H13      1.0000 0.22589  0.82061  0.72416  Biso   1.000  H 
  H14      1.0000 0.78071  0.65648  0.77771  Biso   1.000  H 
  H15      1.0000 0.85358  0.37212  0.27770  Biso   1.000  H 
  H16      1.0000 0.35867  0.30186  0.22957  Biso   1.000  H 
  H17      1.0000 0.42319  0.83196  0.70528  Biso   1.000  H 
  H18      1.0000 0.35359  0.12788  0.77777  Biso   1.000  H 
  H19      1.0000 0.15265  0.79501  0.72218  Biso   1.000  H 
  H20      1.0000 0.28548  0.32709  0.22880  Biso   1.000  H 
  H21      1.0000 0.92319  0.66812  0.20526  Biso   1.000  H 
  H22      1.0000 0.42383  0.84287  0.29508  Biso   1.000  H 
  H23      1.0000 0.72914  0.16489  0.28005  Biso   1.000  H 
  H24      1.0000 0.22588  0.17939  0.22424  Biso   1.000  H 
  H25      1.0000 0.35868  0.69812  0.72960  Biso   1.000  H 
  H26      1.0000 0.15620  0.36422  0.77719  Biso   1.000  H 
  H27      1.0000 0.65620  0.13573  0.27720  Biso   1.000  H 
  H28      1.0000 0.78071  0.34347  0.27772  Biso   1.000  H 
  H29      1.0000 0.92320  0.33186  0.70528  Biso   1.000  H 
  H30      1.0000 0.65265  0.29495  0.72220  Biso   1.000  H 
  H31      1.0000 0.72589  0.32054  0.72417  Biso   1.000  H 
  H32      1.0000 0.08486  0.68141  0.28895  Biso   1.000  H 
  H33      1.0000 0.22914  0.66496  0.28003  Biso   1.000  H 
  H34      1.0000 0.08956  0.35612  0.20120  Biso   1.000  H 
  H35      1.0000 0.28549  0.67288  0.72883  Biso   1.000  H 
  H36      1.0000 0.35358  0.87218  0.27768  Biso   1.000  H 
  H37      1.0000 0.92383  0.34298  0.29509  Biso   1.000  H 
  H38      1.0000 0.92384  0.65707  0.79507  Biso   1.000  H 
  H39      1.0000 0.58957  0.14386  0.70118  Biso   1.000  H 
  H40      1.0000 0.22914  0.33503  0.78003  Biso   1.000  H 
  H41      1.0000 0.78549  0.17285  0.72883  Biso   1.000  H 
  H42      1.0000 0.65265  0.70506  0.22221  Biso   1.000  H 
  H43      1.0000 0.08957  0.64385  0.70117  Biso   1.000  H 
  H44      1.0000 0.28071  0.84357  0.27769  Biso   1.000  H 
  H45      1.0000 0.15620  0.63577  0.27719  Biso   1.000  H 
  H46      1.0000 0.85868  0.19813  0.72959  Biso   1.000  H 
  H47      1.0000 0.72589  0.67946  0.22417  Biso   1.000  H 
  H48      1.0000 0.42385  0.15718  0.79509  Biso   1.000  H 
  N1       1.0000 0.46673  0.88942  0.09111  Biso   1.000  N 
  N2       1.0000 0.54475  0.10679  0.89992  Biso   1.000  N 
  N3       1.0000 0.96662  0.38513  0.90442  Biso   1.000  N 
  N4       1.0000 0.46662  0.88515  0.90442  Biso   1.000  N 
  N5       1.0000 0.04330  0.61812  0.08606  Biso   1.000  N 
  N6       1.0000 0.54330  0.11810  0.08606  Biso   1.000  N 
  N7       1.0000 0.04331  0.38191  0.58610  Biso   1.000  N 
  N8       1.0000 0.04474  0.39320  0.39996  Biso   1.000  N 
  N9       1.0000 0.54474  0.89318  0.39996  Biso   1.000  N 
  N10      1.0000 0.96662  0.61487  0.40440  Biso   1.000  N 
  N11      1.0000 0.96672  0.38946  0.09111  Biso   1.000  N 
  N12      1.0000 0.54331  0.88191  0.58611  Biso   1.000  N 
  N13      1.0000 0.46661  0.11483  0.40440  Biso   1.000  N 
  N14      1.0000 0.04475  0.60680  0.89992  Biso   1.000  N 
  N15      1.0000 0.96673  0.61057  0.59109  Biso   1.000  N 
  N16      1.0000 0.46673  0.11059  0.59109  Biso   1.000  N 
  Zn1      1.0000 0.00534  0.50460  0.24537  Biso   1.000  Zn
  Zn2      1.0000 0.50535  0.99540  0.74538  Biso   1.000  Zn
  Zn3      1.0000 0.50534  0.00458  0.24537  Biso   1.000  Zn
  Zn4      1.0000 0.00534  0.49540  0.74538  Biso   1.000  Zn
