data_image0
_cell_length_a       32.7075
_cell_length_b       12.4241
_cell_length_c       7.2149
_cell_angle_alpha    89.9891
_cell_angle_beta     90.0352
_cell_angle_gamma    89.9996

_symmetry_space_group_name_H-M    "P 1"
_symmetry_int_tables_number       1

loop_
  _symmetry_equiv_pos_as_xyz
  'x, y, z'

loop_
  _atom_site_label
  _atom_site_occupancy
  _atom_site_fract_x
  _atom_site_fract_y
  _atom_site_fract_z
  _atom_site_thermal_displace_type
  _atom_site_B_iso_or_equiv
  _atom_site_type_symbol
  C1       1.0000 0.86165  0.32053  0.00145  Biso   1.000  C 
  C2       1.0000 0.14898  0.32000  0.50062  Biso   1.000  C 
  C3       1.0000 0.64898  0.81999  0.50060  Biso   1.000  C 
  C4       1.0000 0.58194  0.88224  0.34573  Biso   1.000  C 
  C5       1.0000 0.58062  0.12413  0.15096  Biso   1.000  C 
  C6       1.0000 0.42955  0.87965  0.15249  Biso   1.000  C 
  C7       1.0000 0.36165  0.17947  0.50141  Biso   1.000  C 
  C8       1.0000 0.33714  0.16413  0.65956  Biso   1.000  C 
  C9       1.0000 0.84297  0.72384  0.34313  Biso   1.000  C 
  C10      1.0000 0.80167  0.75062  0.34253  Biso   1.000  C 
  C11      1.0000 0.92955  0.37965  0.15252  Biso   1.000  C 
  C12      1.0000 0.08194  0.38225  0.34575  Biso   1.000  C 
  C13      1.0000 0.77717  0.26470  0.00064  Biso   1.000  C 
  C14      1.0000 0.84297  0.27615  0.84320  Biso   1.000  C 
  C15      1.0000 0.60622  0.85416  0.49914  Biso   1.000  C 
  C16      1.0000 0.14898  0.68001  0.00060  Biso   1.000  C 
  C17      1.0000 0.29596  0.19183  0.65934  Biso   1.000  C 
  C18      1.0000 0.23339  0.73638  0.00049  Biso   1.000  C 
  C19      1.0000 0.08195  0.61772  0.84573  Biso   1.000  C 
  C20      1.0000 0.60622  0.14582  0.99914  Biso   1.000  C 
  C21      1.0000 0.42927  0.87866  0.84700  Biso   1.000  C 
  C22      1.0000 0.58196  0.11771  0.84572  Biso   1.000  C 
  C23      1.0000 0.66777  0.22322  0.84173  Biso   1.000  C 
  C24      1.0000 0.10622  0.35417  0.49915  Biso   1.000  C 
  C25      1.0000 0.92926  0.62134  0.34700  Biso   1.000  C 
  C26      1.0000 0.20904  0.75025  0.84145  Biso   1.000  C 
  C27      1.0000 0.08063  0.37588  0.65100  Biso   1.000  C 
  C28      1.0000 0.64898  0.18000  0.00062  Biso   1.000  C 
  C29      1.0000 0.67333  0.16616  0.15983  Biso   1.000  C 
  C30      1.0000 0.71449  0.19416  0.15991  Biso   1.000  C 
  C31      1.0000 0.90445  0.35440  0.00045  Biso   1.000  C 
  C32      1.0000 0.17334  0.66616  0.15980  Biso   1.000  C 
  C33      1.0000 0.21449  0.69416  0.15987  Biso   1.000  C 
  C34      1.0000 0.27717  0.23531  0.50061  Biso   1.000  C 
  C35      1.0000 0.40445  0.14560  0.50040  Biso   1.000  C 
  C36      1.0000 0.17334  0.33384  0.65980  Biso   1.000  C 
  C37      1.0000 0.70904  0.25024  0.84148  Biso   1.000  C 
  C38      1.0000 0.42956  0.12035  0.65248  Biso   1.000  C 
  C39      1.0000 0.30167  0.74938  0.84255  Biso   1.000  C 
  C40      1.0000 0.30167  0.25062  0.34254  Biso   1.000  C 
  C41      1.0000 0.34297  0.22385  0.34314  Biso   1.000  C 
  C42      1.0000 0.86165  0.67947  0.50141  Biso   1.000  C 
  C43      1.0000 0.83714  0.66414  0.65957  Biso   1.000  C 
  C44      1.0000 0.79596  0.69184  0.65934  Biso   1.000  C 
  C45      1.0000 0.34297  0.77615  0.84315  Biso   1.000  C 
  C46      1.0000 0.77717  0.73531  0.50060  Biso   1.000  C 
  C47      1.0000 0.92926  0.37866  0.84704  Biso   1.000  C 
  C48      1.0000 0.29595  0.80818  0.15931  Biso   1.000  C 
  C49      1.0000 0.20904  0.24977  0.34147  Biso   1.000  C 
  C50      1.0000 0.40445  0.85439  0.00040  Biso   1.000  C 
  C51      1.0000 0.16776  0.72323  0.84171  Biso   1.000  C 
  C52      1.0000 0.73339  0.23637  0.00053  Biso   1.000  C 
  C53      1.0000 0.10622  0.64583  0.99914  Biso   1.000  C 
  C54      1.0000 0.90445  0.64560  0.50041  Biso   1.000  C 
  C55      1.0000 0.27717  0.76470  0.00059  Biso   1.000  C 
  C56      1.0000 0.33713  0.83588  0.15954  Biso   1.000  C 
  C57      1.0000 0.23339  0.26363  0.50051  Biso   1.000  C 
  C58      1.0000 0.08062  0.62414  0.15097  Biso   1.000  C 
  C59      1.0000 0.42926  0.12133  0.34699  Biso   1.000  C 
  C60      1.0000 0.58063  0.87586  0.65098  Biso   1.000  C 
  C61      1.0000 0.66776  0.77678  0.34173  Biso   1.000  C 
  C62      1.0000 0.70904  0.74976  0.34147  Biso   1.000  C 
  C63      1.0000 0.16776  0.27679  0.34174  Biso   1.000  C 
  C64      1.0000 0.83713  0.33588  0.15959  Biso   1.000  C 
  C65      1.0000 0.67334  0.83386  0.65977  Biso   1.000  C 
  C66      1.0000 0.71450  0.80586  0.65985  Biso   1.000  C 
  C67      1.0000 0.73339  0.76363  0.50049  Biso   1.000  C 
  C68      1.0000 0.92955  0.62035  0.65249  Biso   1.000  C 
  C69      1.0000 0.80167  0.24938  0.84260  Biso   1.000  C 
  C70      1.0000 0.21450  0.30584  0.65987  Biso   1.000  C 
  C71      1.0000 0.36165  0.82053  0.00141  Biso   1.000  C 
  C72      1.0000 0.79595  0.30819  0.15936  Biso   1.000  C 
  H1       1.0000 0.16015  0.37028  0.78374  Biso   1.000  H 
  H2       1.0000 0.08650  0.63362  0.29815  Biso   1.000  H 
  H3       1.0000 0.64961  0.23723  0.71708  Biso   1.000  H 
  H4       1.0000 0.72251  0.28532  0.71701  Biso   1.000  H 
  H5       1.0000 0.28830  0.71338  0.71861  Biso   1.000  H 
  H6       1.0000 0.92223  0.37419  0.70017  Biso   1.000  H 
  H7       1.0000 0.77759  0.32384  0.28264  Biso   1.000  H 
  H8       1.0000 0.92317  0.37378  0.29979  Biso   1.000  H 
  H9       1.0000 0.23276  0.67958  0.28393  Biso   1.000  H 
  H10      1.0000 0.35022  0.87317  0.28299  Biso   1.000  H 
  H11      1.0000 0.72250  0.71468  0.21702  Biso   1.000  H 
  H12      1.0000 0.92317  0.62621  0.79976  Biso   1.000  H 
  H13      1.0000 0.78831  0.21336  0.71867  Biso   1.000  H 
  H14      1.0000 0.64960  0.76276  0.21710  Biso   1.000  H 
  H15      1.0000 0.42318  0.12623  0.79973  Biso   1.000  H 
  H16      1.0000 0.58954  0.11861  0.69928  Biso   1.000  H 
  H17      1.0000 0.66014  0.12971  0.28377  Biso   1.000  H 
  H18      1.0000 0.23277  0.32042  0.78392  Biso   1.000  H 
  H19      1.0000 0.27759  0.82383  0.28259  Biso   1.000  H 
  H20      1.0000 0.16014  0.62972  0.28375  Biso   1.000  H 
  H21      1.0000 0.86122  0.26101  0.71933  Biso   1.000  H 
  H22      1.0000 0.36122  0.76102  0.71926  Biso   1.000  H 
  H23      1.0000 0.08953  0.61863  0.69929  Biso   1.000  H 
  H24      1.0000 0.08951  0.38134  0.19931  Biso   1.000  H 
  H25      1.0000 0.27760  0.17618  0.78265  Biso   1.000  H 
  H26      1.0000 0.42223  0.87419  0.70013  Biso   1.000  H 
  H27      1.0000 0.58649  0.13361  0.29816  Biso   1.000  H 
  H28      1.0000 0.42222  0.12580  0.20013  Biso   1.000  H 
  H29      1.0000 0.14960  0.26278  0.21712  Biso   1.000  H 
  H30      1.0000 0.86121  0.73897  0.21922  Biso   1.000  H 
  H31      1.0000 0.66015  0.87030  0.78370  Biso   1.000  H 
  H32      1.0000 0.73277  0.82044  0.78389  Biso   1.000  H 
  H33      1.0000 0.85023  0.62685  0.78305  Biso   1.000  H 
  H34      1.0000 0.73276  0.17958  0.28397  Biso   1.000  H 
  H35      1.0000 0.78830  0.78662  0.21858  Biso   1.000  H 
  H36      1.0000 0.58651  0.86640  0.79818  Biso   1.000  H 
  H37      1.0000 0.42316  0.87379  0.29975  Biso   1.000  H 
  H38      1.0000 0.08651  0.36641  0.79819  Biso   1.000  H 
  H39      1.0000 0.28830  0.28662  0.21859  Biso   1.000  H 
  H40      1.0000 0.14960  0.73725  0.71707  Biso   1.000  H 
  H41      1.0000 0.35023  0.12683  0.78303  Biso   1.000  H 
  H42      1.0000 0.58951  0.88133  0.19929  Biso   1.000  H 
  H43      1.0000 0.22250  0.21470  0.21701  Biso   1.000  H 
  H44      1.0000 0.22250  0.78534  0.71698  Biso   1.000  H 
  H45      1.0000 0.92223  0.62581  0.20013  Biso   1.000  H 
  H46      1.0000 0.36121  0.23897  0.21924  Biso   1.000  H 
  H47      1.0000 0.85022  0.37318  0.28303  Biso   1.000  H 
  H48      1.0000 0.77760  0.67620  0.78264  Biso   1.000  H 
  N1       1.0000 0.46576  0.08331  0.40419  Biso   1.000  N 
  N2       1.0000 0.54441  0.91483  0.59193  Biso   1.000  N 
  N3       1.0000 0.54528  0.91903  0.40285  Biso   1.000  N 
  N4       1.0000 0.96597  0.41711  0.09349  Biso   1.000  N 
  N5       1.0000 0.46598  0.08289  0.59345  Biso   1.000  N 
  N6       1.0000 0.96576  0.58332  0.40420  Biso   1.000  N 
  N7       1.0000 0.96597  0.58289  0.59346  Biso   1.000  N 
  N8       1.0000 0.04529  0.58093  0.90283  Biso   1.000  N 
  N9       1.0000 0.54529  0.08092  0.90282  Biso   1.000  N 
  N10      1.0000 0.96577  0.41668  0.90423  Biso   1.000  N 
  N11      1.0000 0.46597  0.91710  0.09346  Biso   1.000  N 
  N12      1.0000 0.04441  0.41484  0.59195  Biso   1.000  N 
  N13      1.0000 0.04528  0.41904  0.40288  Biso   1.000  N 
  N14      1.0000 0.54441  0.08515  0.09189  Biso   1.000  N 
  N15      1.0000 0.04441  0.58515  0.09190  Biso   1.000  N 
  N16      1.0000 0.46577  0.91668  0.90421  Biso   1.000  N 
  Zn1      1.0000 0.00536  0.50113  0.24813  Biso   1.000  Zn
  Zn2      1.0000 0.50537  0.99885  0.74813  Biso   1.000  Zn
  Zn3      1.0000 0.50536  0.00116  0.24809  Biso   1.000  Zn
  Zn4      1.0000 0.00537  0.49885  0.74810  Biso   1.000  Zn
