data_image0
_cell_length_a       32.1224
_cell_length_b       14.1802
_cell_length_c       7.2008
_cell_angle_alpha    89.9952
_cell_angle_beta     90.0528
_cell_angle_gamma    90.0004

_symmetry_space_group_name_H-M    "P 1"
_symmetry_int_tables_number       1

loop_
  _symmetry_equiv_pos_as_xyz
  'x, y, z'

loop_
  _atom_site_label
  _atom_site_occupancy
  _atom_site_fract_x
  _atom_site_fract_y
  _atom_site_fract_z
  _atom_site_thermal_displace_type
  _atom_site_B_iso_or_equiv
  _atom_site_type_symbol
  C1       1.0000 0.86122  0.33029  0.00086  Biso   1.000  C 
  C2       1.0000 0.16730  0.71065  0.84122  Biso   1.000  C 
  C3       1.0000 0.40388  0.86617  0.99980  Biso   1.000  C 
  C4       1.0000 0.20841  0.25853  0.34110  Biso   1.000  C 
  C5       1.0000 0.29510  0.80711  0.16009  Biso   1.000  C 
  C6       1.0000 0.27711  0.76655  0.00073  Biso   1.000  C 
  C7       1.0000 0.92866  0.39045  0.84627  Biso   1.000  C 
  C8       1.0000 0.10677  0.63411  0.99948  Biso   1.000  C 
  C9       1.0000 0.77711  0.73344  0.50070  Biso   1.000  C 
  C10      1.0000 0.79510  0.69289  0.66008  Biso   1.000  C 
  C11      1.0000 0.83608  0.66142  0.65998  Biso   1.000  C 
  C12      1.0000 0.86122  0.66969  0.50079  Biso   1.000  C 
  C13      1.0000 0.34336  0.21084  0.34178  Biso   1.000  C 
  C14      1.0000 0.30224  0.24160  0.34157  Biso   1.000  C 
  C15      1.0000 0.30224  0.75840  0.84157  Biso   1.000  C 
  C16      1.0000 0.34336  0.78917  0.84180  Biso   1.000  C 
  C17      1.0000 0.90388  0.63382  0.49978  Biso   1.000  C 
  C18      1.0000 0.08139  0.61131  0.15192  Biso   1.000  C 
  C19      1.0000 0.33608  0.83859  0.15998  Biso   1.000  C 
  C20      1.0000 0.36122  0.83030  0.00081  Biso   1.000  C 
  C21      1.0000 0.79510  0.30710  0.16013  Biso   1.000  C 
  C22      1.0000 0.80224  0.25840  0.84162  Biso   1.000  C 
  C23      1.0000 0.92903  0.60965  0.65235  Biso   1.000  C 
  C24      1.0000 0.73349  0.76594  0.50067  Biso   1.000  C 
  C25      1.0000 0.71547  0.80581  0.66047  Biso   1.000  C 
  C26      1.0000 0.67450  0.83738  0.66031  Biso   1.000  C 
  C27      1.0000 0.21547  0.30582  0.66051  Biso   1.000  C 
  C28      1.0000 0.16730  0.28936  0.34126  Biso   1.000  C 
  C29      1.0000 0.70840  0.75851  0.34107  Biso   1.000  C 
  C30      1.0000 0.66730  0.78934  0.34123  Biso   1.000  C 
  C31      1.0000 0.83608  0.33858  0.16003  Biso   1.000  C 
  C32      1.0000 0.58139  0.88871  0.65193  Biso   1.000  C 
  C33      1.0000 0.42866  0.10954  0.34623  Biso   1.000  C 
  C34      1.0000 0.23350  0.26596  0.50071  Biso   1.000  C 
  C35      1.0000 0.42903  0.10966  0.65236  Biso   1.000  C 
  C36      1.0000 0.73350  0.23405  0.00073  Biso   1.000  C 
  C37      1.0000 0.17450  0.33739  0.66036  Biso   1.000  C 
  C38      1.0000 0.40388  0.13383  0.49979  Biso   1.000  C 
  C39      1.0000 0.60677  0.86588  0.49948  Biso   1.000  C 
  C40      1.0000 0.84336  0.28916  0.84184  Biso   1.000  C 
  C41      1.0000 0.77711  0.26655  0.00077  Biso   1.000  C 
  C42      1.0000 0.08225  0.39178  0.34590  Biso   1.000  C 
  C43      1.0000 0.92904  0.39034  0.15240  Biso   1.000  C 
  C44      1.0000 0.80223  0.74158  0.34154  Biso   1.000  C 
  C45      1.0000 0.14940  0.67015  0.00064  Biso   1.000  C 
  C46      1.0000 0.84335  0.71082  0.34176  Biso   1.000  C 
  C47      1.0000 0.36122  0.16970  0.50080  Biso   1.000  C 
  C48      1.0000 0.42903  0.89035  0.15237  Biso   1.000  C 
  C49      1.0000 0.58139  0.11131  0.15192  Biso   1.000  C 
  C50      1.0000 0.58225  0.89177  0.34587  Biso   1.000  C 
  C51      1.0000 0.64940  0.82985  0.50064  Biso   1.000  C 
  C52      1.0000 0.14940  0.32987  0.50068  Biso   1.000  C 
  C53      1.0000 0.33609  0.16142  0.65999  Biso   1.000  C 
  C54      1.0000 0.29510  0.19290  0.66010  Biso   1.000  C 
  C55      1.0000 0.23350  0.73405  0.00069  Biso   1.000  C 
  C56      1.0000 0.08225  0.60822  0.84586  Biso   1.000  C 
  C57      1.0000 0.27711  0.23345  0.50073  Biso   1.000  C 
  C58      1.0000 0.21547  0.69419  0.16050  Biso   1.000  C 
  C59      1.0000 0.17449  0.66263  0.16034  Biso   1.000  C 
  C60      1.0000 0.90388  0.36616  0.99984  Biso   1.000  C 
  C61      1.0000 0.71547  0.19419  0.16053  Biso   1.000  C 
  C62      1.0000 0.67449  0.16263  0.16036  Biso   1.000  C 
  C63      1.0000 0.64940  0.17015  0.00066  Biso   1.000  C 
  C64      1.0000 0.08139  0.38871  0.65195  Biso   1.000  C 
  C65      1.0000 0.20841  0.74147  0.84107  Biso   1.000  C 
  C66      1.0000 0.92866  0.60955  0.34623  Biso   1.000  C 
  C67      1.0000 0.10677  0.36590  0.49952  Biso   1.000  C 
  C68      1.0000 0.66731  0.21065  0.84124  Biso   1.000  C 
  C69      1.0000 0.58226  0.10821  0.84587  Biso   1.000  C 
  C70      1.0000 0.70841  0.24147  0.84110  Biso   1.000  C 
  C71      1.0000 0.42866  0.89044  0.84624  Biso   1.000  C 
  C72      1.0000 0.60677  0.13411  0.99949  Biso   1.000  C 
  H1       1.0000 0.42273  0.88413  0.29994  Biso   1.000  H 
  H2       1.0000 0.42161  0.11370  0.19900  Biso   1.000  H 
  H3       1.0000 0.14851  0.28055  0.21614  Biso   1.000  H 
  H4       1.0000 0.86217  0.72018  0.21702  Biso   1.000  H 
  H5       1.0000 0.66209  0.87101  0.78482  Biso   1.000  H 
  H6       1.0000 0.73437  0.81498  0.78516  Biso   1.000  H 
  H7       1.0000 0.84847  0.62728  0.78410  Biso   1.000  H 
  H8       1.0000 0.73436  0.18504  0.28525  Biso   1.000  H 
  H9       1.0000 0.78961  0.77484  0.21697  Biso   1.000  H 
  H10      1.0000 0.58746  0.88097  0.79947  Biso   1.000  H 
  H11      1.0000 0.28962  0.27487  0.21701  Biso   1.000  H 
  H12      1.0000 0.08745  0.38098  0.79949  Biso   1.000  H 
  H13      1.0000 0.84847  0.37272  0.28414  Biso   1.000  H 
  H14      1.0000 0.36217  0.22021  0.21705  Biso   1.000  H 
  H15      1.0000 0.92161  0.61371  0.19899  Biso   1.000  H 
  H16      1.0000 0.22105  0.77423  0.71613  Biso   1.000  H 
  H17      1.0000 0.27618  0.18309  0.78435  Biso   1.000  H 
  H18      1.0000 0.77617  0.68310  0.78434  Biso   1.000  H 
  H19      1.0000 0.58954  0.88908  0.19880  Biso   1.000  H 
  H20      1.0000 0.34847  0.12727  0.78410  Biso   1.000  H 
  H21      1.0000 0.14852  0.71945  0.71608  Biso   1.000  H 
  H22      1.0000 0.22105  0.22578  0.21616  Biso   1.000  H 
  H23      1.0000 0.42162  0.88628  0.69901  Biso   1.000  H 
  H24      1.0000 0.58745  0.11906  0.29945  Biso   1.000  H 
  H25      1.0000 0.08955  0.38910  0.19882  Biso   1.000  H 
  H26      1.0000 0.36218  0.77979  0.71708  Biso   1.000  H 
  H27      1.0000 0.92273  0.38411  0.29997  Biso   1.000  H 
  H28      1.0000 0.92161  0.38629  0.69904  Biso   1.000  H 
  H29      1.0000 0.72106  0.27422  0.71616  Biso   1.000  H 
  H30      1.0000 0.28962  0.72514  0.71702  Biso   1.000  H 
  H31      1.0000 0.23436  0.68504  0.28521  Biso   1.000  H 
  H32      1.0000 0.64852  0.21944  0.71609  Biso   1.000  H 
  H33      1.0000 0.08745  0.61905  0.29945  Biso   1.000  H 
  H34      1.0000 0.16209  0.37100  0.78488  Biso   1.000  H 
  H35      1.0000 0.77617  0.31691  0.28438  Biso   1.000  H 
  H36      1.0000 0.34847  0.87273  0.28409  Biso   1.000  H 
  H37      1.0000 0.08956  0.61089  0.69879  Biso   1.000  H 
  H38      1.0000 0.92273  0.61588  0.79992  Biso   1.000  H 
  H39      1.0000 0.78962  0.22514  0.71706  Biso   1.000  H 
  H40      1.0000 0.64851  0.78052  0.21611  Biso   1.000  H 
  H41      1.0000 0.42273  0.11589  0.79993  Biso   1.000  H 
  H42      1.0000 0.58956  0.11088  0.69880  Biso   1.000  H 
  H43      1.0000 0.66208  0.12901  0.28489  Biso   1.000  H 
  H44      1.0000 0.72104  0.72576  0.21613  Biso   1.000  H 
  H45      1.0000 0.23437  0.31497  0.78520  Biso   1.000  H 
  H46      1.0000 0.27617  0.81691  0.28433  Biso   1.000  H 
  H47      1.0000 0.16208  0.62901  0.28486  Biso   1.000  H 
  H48      1.0000 0.86218  0.27979  0.71712  Biso   1.000  H 
  N1       1.0000 0.04505  0.57434  0.09290  Biso   1.000  N 
  N2       1.0000 0.54505  0.07434  0.09290  Biso   1.000  N 
  N3       1.0000 0.04563  0.42776  0.40350  Biso   1.000  N 
  N4       1.0000 0.04505  0.42567  0.59293  Biso   1.000  N 
  N5       1.0000 0.54564  0.07223  0.90347  Biso   1.000  N 
  N6       1.0000 0.46549  0.92658  0.09342  Biso   1.000  N 
  N7       1.0000 0.96522  0.42682  0.90395  Biso   1.000  N 
  N8       1.0000 0.46523  0.92682  0.90393  Biso   1.000  N 
  N9       1.0000 0.04563  0.57224  0.90347  Biso   1.000  N 
  N10      1.0000 0.46522  0.07318  0.40392  Biso   1.000  N 
  N11      1.0000 0.96549  0.57342  0.59340  Biso   1.000  N 
  N12      1.0000 0.96522  0.57318  0.40391  Biso   1.000  N 
  N13      1.0000 0.46549  0.07343  0.59340  Biso   1.000  N 
  N14      1.0000 0.96549  0.42657  0.09343  Biso   1.000  N 
  N15      1.0000 0.54563  0.92775  0.40348  Biso   1.000  N 
  N16      1.0000 0.54505  0.92567  0.59291  Biso   1.000  N 
  Zn1      1.0000 0.50533  0.99958  0.74854  Biso   1.000  Zn
  Zn2      1.0000 0.50533  0.00042  0.24856  Biso   1.000  Zn
  Zn3      1.0000 0.00533  0.50042  0.24856  Biso   1.000  Zn
  Zn4      1.0000 0.00533  0.49957  0.74857  Biso   1.000  Zn
