data_image0
_cell_length_a       33.6178
_cell_length_b       7.00676
_cell_length_c       7.31149
_cell_angle_alpha    89.9947
_cell_angle_beta     89.8691
_cell_angle_gamma    90.0003

_symmetry_space_group_name_H-M    "P 1"
_symmetry_int_tables_number       1

loop_
  _symmetry_equiv_pos_as_xyz
  'x, y, z'

loop_
  _atom_site_label
  _atom_site_occupancy
  _atom_site_fract_x
  _atom_site_fract_y
  _atom_site_fract_z
  _atom_site_thermal_displace_type
  _atom_site_B_iso_or_equiv
  _atom_site_type_symbol
  C1       1.0000 0.86199  0.24557  0.00537  Biso   1.000  C 
  C2       1.0000 0.84005  0.30498  0.15963  Biso   1.000  C 
  C3       1.0000 0.21133  0.29644  0.65939  Biso   1.000  C 
  C4       1.0000 0.17000  0.29658  0.65778  Biso   1.000  C 
  C5       1.0000 0.14865  0.24533  0.49964  Biso   1.000  C 
  C6       1.0000 0.64865  0.74532  0.49964  Biso   1.000  C 
  C7       1.0000 0.36199  0.25444  0.50531  Biso   1.000  C 
  C8       1.0000 0.34005  0.19506  0.65960  Biso   1.000  C 
  C9       1.0000 0.84055  0.81760  0.35166  Biso   1.000  C 
  C10      1.0000 0.79913  0.81558  0.35044  Biso   1.000  C 
  C11      1.0000 0.93078  0.30349  0.15040  Biso   1.000  C 
  C12      1.0000 0.08167  0.31506  0.34281  Biso   1.000  C 
  C13      1.0000 0.77725  0.24682  0.00359  Biso   1.000  C 
  C14      1.0000 0.84055  0.18242  0.85171  Biso   1.000  C 
  C15      1.0000 0.60534  0.76806  0.49469  Biso   1.000  C 
  C16      1.0000 0.14864  0.75470  0.99963  Biso   1.000  C 
  C17      1.0000 0.29872  0.19562  0.65913  Biso   1.000  C 
  C18      1.0000 0.58167  0.81501  0.34280  Biso   1.000  C 
  C19      1.0000 0.08167  0.68492  0.84279  Biso   1.000  C 
  C20      1.0000 0.43014  0.79584  0.84917  Biso   1.000  C 
  C21      1.0000 0.60534  0.23191  0.99468  Biso   1.000  C 
  C22      1.0000 0.58167  0.18495  0.84279  Biso   1.000  C 
  C23      1.0000 0.67063  0.30926  0.84418  Biso   1.000  C 
  C24      1.0000 0.10534  0.26808  0.49469  Biso   1.000  C 
  C25      1.0000 0.93015  0.70423  0.34919  Biso   1.000  C 
  C26      1.0000 0.21204  0.80694  0.84519  Biso   1.000  C 
  C27      1.0000 0.21133  0.70360  0.15940  Biso   1.000  C 
  C28      1.0000 0.64864  0.25467  0.99964  Biso   1.000  C 
  C29      1.0000 0.66999  0.20342  0.15778  Biso   1.000  C 
  C30      1.0000 0.71133  0.20357  0.15940  Biso   1.000  C 
  C31      1.0000 0.23334  0.75272  0.00233  Biso   1.000  C 
  C32      1.0000 0.43079  0.80342  0.15035  Biso   1.000  C 
  C33      1.0000 0.57876  0.21522  0.14250  Biso   1.000  C 
  C34      1.0000 0.27726  0.25321  0.50357  Biso   1.000  C 
  C35      1.0000 0.40531  0.23191  0.50192  Biso   1.000  C 
  C36      1.0000 0.57877  0.78476  0.64252  Biso   1.000  C 
  C37      1.0000 0.16999  0.70346  0.15777  Biso   1.000  C 
  C38      1.0000 0.43079  0.19656  0.65033  Biso   1.000  C 
  C39      1.0000 0.29912  0.68444  0.85046  Biso   1.000  C 
  C40      1.0000 0.29913  0.31558  0.35043  Biso   1.000  C 
  C41      1.0000 0.34055  0.31759  0.35164  Biso   1.000  C 
  C42      1.0000 0.86199  0.75444  0.50533  Biso   1.000  C 
  C43      1.0000 0.84005  0.69504  0.65961  Biso   1.000  C 
  C44      1.0000 0.79872  0.69560  0.65913  Biso   1.000  C 
  C45      1.0000 0.34054  0.68242  0.85167  Biso   1.000  C 
  C46      1.0000 0.77726  0.75320  0.50357  Biso   1.000  C 
  C47      1.0000 0.93015  0.29575  0.84923  Biso   1.000  C 
  C48      1.0000 0.17063  0.80928  0.84417  Biso   1.000  C 
  C49      1.0000 0.73334  0.25269  0.00235  Biso   1.000  C 
  C50      1.0000 0.71204  0.30692  0.84521  Biso   1.000  C 
  C51      1.0000 0.07876  0.28473  0.64251  Biso   1.000  C 
  C52      1.0000 0.90530  0.26808  0.00199  Biso   1.000  C 
  C53      1.0000 0.10534  0.73193  0.99467  Biso   1.000  C 
  C54      1.0000 0.90531  0.73191  0.50195  Biso   1.000  C 
  C55      1.0000 0.40530  0.76809  0.00193  Biso   1.000  C 
  C56      1.0000 0.34005  0.80500  0.15959  Biso   1.000  C 
  C57      1.0000 0.23335  0.24733  0.50234  Biso   1.000  C 
  C58      1.0000 0.21204  0.19309  0.34521  Biso   1.000  C 
  C59      1.0000 0.29871  0.80445  0.15912  Biso   1.000  C 
  C60      1.0000 0.27725  0.74683  0.00357  Biso   1.000  C 
  C61      1.0000 0.67063  0.69073  0.34419  Biso   1.000  C 
  C62      1.0000 0.71204  0.69308  0.34521  Biso   1.000  C 
  C63      1.0000 0.17063  0.19075  0.34419  Biso   1.000  C 
  C64      1.0000 0.07876  0.71526  0.14249  Biso   1.000  C 
  C65      1.0000 0.67000  0.79658  0.65777  Biso   1.000  C 
  C66      1.0000 0.71133  0.79644  0.65938  Biso   1.000  C 
  C67      1.0000 0.73335  0.74732  0.50233  Biso   1.000  C 
  C68      1.0000 0.93078  0.69648  0.65037  Biso   1.000  C 
  C69      1.0000 0.79913  0.18443  0.85048  Biso   1.000  C 
  C70      1.0000 0.43014  0.20413  0.34915  Biso   1.000  C 
  C71      1.0000 0.79871  0.30442  0.15915  Biso   1.000  C 
  C72      1.0000 0.36198  0.74558  0.00533  Biso   1.000  C 
  H1       1.0000 0.65402  0.15504  0.27927  Biso   1.000  H 
  H2       1.0000 0.28350  0.63351  0.72931  Biso   1.000  H 
  H3       1.0000 0.78282  0.35662  0.27936  Biso   1.000  H 
  H4       1.0000 0.08392  0.73890  0.28723  Biso   1.000  H 
  H5       1.0000 0.92298  0.28724  0.70481  Biso   1.000  H 
  H6       1.0000 0.22682  0.65757  0.28268  Biso   1.000  H 
  H7       1.0000 0.72814  0.35132  0.72267  Biso   1.000  H 
  H8       1.0000 0.35638  0.63078  0.73104  Biso   1.000  H 
  H9       1.0000 0.65518  0.35474  0.72058  Biso   1.000  H 
  H10      1.0000 0.35551  0.85975  0.27963  Biso   1.000  H 
  H11      1.0000 0.65518  0.64524  0.22060  Biso   1.000  H 
  H12      1.0000 0.92450  0.70189  0.79591  Biso   1.000  H 
  H13      1.0000 0.28282  0.85666  0.27934  Biso   1.000  H 
  H14      1.0000 0.42452  0.20205  0.79587  Biso   1.000  H 
  H15      1.0000 0.72814  0.64867  0.22268  Biso   1.000  H 
  H16      1.0000 0.85639  0.13078  0.73107  Biso   1.000  H 
  H17      1.0000 0.15403  0.34495  0.77927  Biso   1.000  H 
  H18      1.0000 0.78351  0.13352  0.72932  Biso   1.000  H 
  H19      1.0000 0.22683  0.34248  0.78267  Biso   1.000  H 
  H20      1.0000 0.59001  0.17544  0.69959  Biso   1.000  H 
  H21      1.0000 0.15402  0.65509  0.27928  Biso   1.000  H 
  H22      1.0000 0.92450  0.29809  0.29594  Biso   1.000  H 
  H23      1.0000 0.09002  0.32463  0.19961  Biso   1.000  H 
  H24      1.0000 0.09002  0.67536  0.69960  Biso   1.000  H 
  H25      1.0000 0.42451  0.79794  0.29589  Biso   1.000  H 
  H26      1.0000 0.58392  0.23879  0.28725  Biso   1.000  H 
  H27      1.0000 0.42296  0.78740  0.70475  Biso   1.000  H 
  H28      1.0000 0.65403  0.84497  0.77926  Biso   1.000  H 
  H29      1.0000 0.85551  0.64030  0.77967  Biso   1.000  H 
  H30      1.0000 0.42297  0.21256  0.20473  Biso   1.000  H 
  H31      1.0000 0.72683  0.84249  0.78265  Biso   1.000  H 
  H32      1.0000 0.78351  0.86649  0.22928  Biso   1.000  H 
  H33      1.0000 0.85639  0.86923  0.23101  Biso   1.000  H 
  H34      1.0000 0.22814  0.14870  0.22268  Biso   1.000  H 
  H35      1.0000 0.15518  0.14527  0.22060  Biso   1.000  H 
  H36      1.0000 0.58393  0.76119  0.78727  Biso   1.000  H 
  H37      1.0000 0.28282  0.14343  0.77936  Biso   1.000  H 
  H38      1.0000 0.08393  0.26111  0.78726  Biso   1.000  H 
  H39      1.0000 0.35639  0.36921  0.23098  Biso   1.000  H 
  H40      1.0000 0.35551  0.14032  0.77966  Biso   1.000  H 
  H41      1.0000 0.22814  0.85133  0.72265  Biso   1.000  H 
  H42      1.0000 0.78282  0.64340  0.77936  Biso   1.000  H 
  H43      1.0000 0.72682  0.15753  0.28269  Biso   1.000  H 
  H44      1.0000 0.15518  0.85475  0.72057  Biso   1.000  H 
  H45      1.0000 0.28350  0.36649  0.22928  Biso   1.000  H 
  H46      1.0000 0.92298  0.71277  0.20478  Biso   1.000  H 
  H47      1.0000 0.59001  0.82452  0.19961  Biso   1.000  H 
  H48      1.0000 0.85550  0.35972  0.27968  Biso   1.000  H 
  N1       1.0000 0.96721  0.35474  0.09033  Biso   1.000  N 
  N2       1.0000 0.54463  0.86269  0.39737  Biso   1.000  N 
  N3       1.0000 0.96681  0.64979  0.40306  Biso   1.000  N 
  N4       1.0000 0.46721  0.14524  0.59027  Biso   1.000  N 
  N5       1.0000 0.96721  0.64521  0.59031  Biso   1.000  N 
  N6       1.0000 0.04463  0.63724  0.89735  Biso   1.000  N 
  N7       1.0000 0.54274  0.84329  0.58360  Biso   1.000  N 
  N8       1.0000 0.46680  0.14972  0.40302  Biso   1.000  N 
  N9       1.0000 0.96681  0.35017  0.90309  Biso   1.000  N 
  N10      1.0000 0.54273  0.15666  0.08357  Biso   1.000  N 
  N11      1.0000 0.46680  0.85022  0.90303  Biso   1.000  N 
  N12      1.0000 0.54463  0.13726  0.89735  Biso   1.000  N 
  N13      1.0000 0.46721  0.85471  0.09028  Biso   1.000  N 
  N14      1.0000 0.04463  0.36272  0.39737  Biso   1.000  N 
  N15      1.0000 0.04274  0.34328  0.58360  Biso   1.000  N 
  N16      1.0000 0.04273  0.65669  0.08357  Biso   1.000  N 
  Zn1      1.0000 0.00534  0.50723  0.24346  Biso   1.000  Zn
  Zn2      1.0000 0.50534  0.99272  0.74346  Biso   1.000  Zn
  Zn3      1.0000 0.50534  0.00725  0.24346  Biso   1.000  Zn
  Zn4      1.0000 0.00534  0.49271  0.74346  Biso   1.000  Zn
