data_image0
_cell_length_a       30.2435
_cell_length_b       18.2054
_cell_length_c       7.17017
_cell_angle_alpha    89.9973
_cell_angle_beta     90.0809
_cell_angle_gamma    90

_symmetry_space_group_name_H-M    "P 1"
_symmetry_int_tables_number       1

loop_
  _symmetry_equiv_pos_as_xyz
  'x, y, z'

loop_
  _atom_site_label
  _atom_site_occupancy
  _atom_site_fract_x
  _atom_site_fract_y
  _atom_site_fract_z
  _atom_site_thermal_displace_type
  _atom_site_B_iso_or_equiv
  _atom_site_type_symbol
  C1       1.0000 0.85990  0.34331  0.00041  Biso   1.000  C 
  C2       1.0000 0.58378  0.90615  0.34609  Biso   1.000  C 
  C3       1.0000 0.58338  0.09491  0.15363  Biso   1.000  C 
  C4       1.0000 0.42734  0.90593  0.15374  Biso   1.000  C 
  C5       1.0000 0.23372  0.73162  0.99979  Biso   1.000  C 
  C6       1.0000 0.21803  0.69576  0.16046  Biso   1.000  C 
  C7       1.0000 0.35989  0.15670  0.50039  Biso   1.000  C 
  C8       1.0000 0.33304  0.15822  0.66048  Biso   1.000  C 
  C9       1.0000 0.84417  0.69287  0.34004  Biso   1.000  C 
  C10      1.0000 0.80351  0.72851  0.33954  Biso   1.000  C 
  C11      1.0000 0.92734  0.40592  0.15375  Biso   1.000  C 
  C12      1.0000 0.08378  0.40615  0.34610  Biso   1.000  C 
  C13      1.0000 0.77673  0.26973  0.99977  Biso   1.000  C 
  C14      1.0000 0.84418  0.30712  0.84006  Biso   1.000  C 
  C15      1.0000 0.60848  0.88144  0.50007  Biso   1.000  C 
  C16      1.0000 0.15072  0.65755  0.00037  Biso   1.000  C 
  C17      1.0000 0.29254  0.19436  0.66029  Biso   1.000  C 
  C18      1.0000 0.17762  0.65937  0.16061  Biso   1.000  C 
  C19      1.0000 0.08379  0.59386  0.84609  Biso   1.000  C 
  C20      1.0000 0.60849  0.11856  0.00008  Biso   1.000  C 
  C21      1.0000 0.42707  0.90600  0.84617  Biso   1.000  C 
  C22      1.0000 0.58379  0.09385  0.84610  Biso   1.000  C 
  C23      1.0000 0.66627  0.19374  0.83996  Biso   1.000  C 
  C24      1.0000 0.10848  0.38144  0.50009  Biso   1.000  C 
  C25      1.0000 0.92706  0.59399  0.34617  Biso   1.000  C 
  C26      1.0000 0.20686  0.72965  0.83948  Biso   1.000  C 
  C27      1.0000 0.73371  0.23162  0.99979  Biso   1.000  C 
  C28      1.0000 0.65072  0.15755  0.00038  Biso   1.000  C 
  C29      1.0000 0.67762  0.15937  0.16062  Biso   1.000  C 
  C30      1.0000 0.71803  0.19576  0.16046  Biso   1.000  C 
  C31      1.0000 0.70686  0.22964  0.83948  Biso   1.000  C 
  C32      1.0000 0.08338  0.40510  0.65363  Biso   1.000  C 
  C33      1.0000 0.90224  0.38198  0.00017  Biso   1.000  C 
  C34      1.0000 0.27673  0.23027  0.49975  Biso   1.000  C 
  C35      1.0000 0.40223  0.11802  0.50016  Biso   1.000  C 
  C36      1.0000 0.65071  0.84245  0.50037  Biso   1.000  C 
  C37      1.0000 0.16628  0.69374  0.83995  Biso   1.000  C 
  C38      1.0000 0.42734  0.09409  0.65374  Biso   1.000  C 
  C39      1.0000 0.30352  0.77148  0.83954  Biso   1.000  C 
  C40      1.0000 0.30352  0.22853  0.33953  Biso   1.000  C 
  C41      1.0000 0.34418  0.19288  0.34002  Biso   1.000  C 
  C42      1.0000 0.85989  0.65669  0.50041  Biso   1.000  C 
  C43      1.0000 0.83304  0.65822  0.66051  Biso   1.000  C 
  C44      1.0000 0.79254  0.69435  0.66031  Biso   1.000  C 
  C45      1.0000 0.34418  0.80712  0.84003  Biso   1.000  C 
  C46      1.0000 0.77672  0.73026  0.49977  Biso   1.000  C 
  C47      1.0000 0.92707  0.40601  0.84619  Biso   1.000  C 
  C48      1.0000 0.08338  0.59490  0.15362  Biso   1.000  C 
  C49      1.0000 0.27673  0.76973  0.99976  Biso   1.000  C 
  C50      1.0000 0.29255  0.80564  0.16030  Biso   1.000  C 
  C51      1.0000 0.20685  0.27036  0.33948  Biso   1.000  C 
  C52      1.0000 0.40224  0.88198  0.00015  Biso   1.000  C 
  C53      1.0000 0.10849  0.61856  0.00007  Biso   1.000  C 
  C54      1.0000 0.90223  0.61802  0.50016  Biso   1.000  C 
  C55      1.0000 0.42706  0.09398  0.34617  Biso   1.000  C 
  C56      1.0000 0.33304  0.84178  0.16049  Biso   1.000  C 
  C57      1.0000 0.23371  0.26838  0.49979  Biso   1.000  C 
  C58      1.0000 0.58338  0.90510  0.65363  Biso   1.000  C 
  C59      1.0000 0.83304  0.34178  0.16051  Biso   1.000  C 
  C60      1.0000 0.21803  0.30424  0.66045  Biso   1.000  C 
  C61      1.0000 0.66627  0.80625  0.33996  Biso   1.000  C 
  C62      1.0000 0.70685  0.77035  0.33949  Biso   1.000  C 
  C63      1.0000 0.16627  0.30626  0.33996  Biso   1.000  C 
  C64      1.0000 0.17762  0.34063  0.66062  Biso   1.000  C 
  C65      1.0000 0.67761  0.84063  0.66061  Biso   1.000  C 
  C66      1.0000 0.71802  0.80423  0.66046  Biso   1.000  C 
  C67      1.0000 0.73371  0.76837  0.49980  Biso   1.000  C 
  C68      1.0000 0.92734  0.59408  0.65374  Biso   1.000  C 
  C69      1.0000 0.80352  0.27147  0.83955  Biso   1.000  C 
  C70      1.0000 0.15071  0.34245  0.50038  Biso   1.000  C 
  C71      1.0000 0.35990  0.84330  0.00039  Biso   1.000  C 
  C72      1.0000 0.79254  0.30564  0.16030  Biso   1.000  C 
  H1       1.0000 0.36454  0.80570  0.71455  Biso   1.000  H 
  H2       1.0000 0.64584  0.19497  0.71443  Biso   1.000  H 
  H3       1.0000 0.29282  0.74262  0.71397  Biso   1.000  H 
  H4       1.0000 0.23853  0.69454  0.28575  Biso   1.000  H 
  H5       1.0000 0.77210  0.30707  0.28549  Biso   1.000  H 
  H6       1.0000 0.71743  0.25851  0.71387  Biso   1.000  H 
  H7       1.0000 0.92000  0.40127  0.69820  Biso   1.000  H 
  H8       1.0000 0.09091  0.59819  0.69813  Biso   1.000  H 
  H9       1.0000 0.08956  0.60176  0.30178  Biso   1.000  H 
  H10      1.0000 0.34355  0.87089  0.28600  Biso   1.000  H 
  H11      1.0000 0.16723  0.63027  0.28617  Biso   1.000  H 
  H12      1.0000 0.92110  0.60045  0.80194  Biso   1.000  H 
  H13      1.0000 0.42111  0.10046  0.80193  Biso   1.000  H 
  H14      1.0000 0.59091  0.09818  0.69814  Biso   1.000  H 
  H15      1.0000 0.86454  0.30570  0.71458  Biso   1.000  H 
  H16      1.0000 0.79282  0.24262  0.71399  Biso   1.000  H 
  H17      1.0000 0.92110  0.39955  0.30195  Biso   1.000  H 
  H18      1.0000 0.64584  0.80503  0.21443  Biso   1.000  H 
  H19      1.0000 0.71742  0.74148  0.21389  Biso   1.000  H 
  H20      1.0000 0.23853  0.30545  0.78574  Biso   1.000  H 
  H21      1.0000 0.27211  0.80707  0.28549  Biso   1.000  H 
  H22      1.0000 0.09090  0.40181  0.19814  Biso   1.000  H 
  H23      1.0000 0.66723  0.13027  0.28618  Biso   1.000  H 
  H24      1.0000 0.16723  0.36973  0.78619  Biso   1.000  H 
  H25      1.0000 0.73853  0.19454  0.28576  Biso   1.000  H 
  H26      1.0000 0.27210  0.19293  0.78548  Biso   1.000  H 
  H27      1.0000 0.42110  0.89956  0.30194  Biso   1.000  H 
  H28      1.0000 0.14584  0.30504  0.21444  Biso   1.000  H 
  H29      1.0000 0.66723  0.86973  0.78617  Biso   1.000  H 
  H30      1.0000 0.79280  0.75736  0.21397  Biso   1.000  H 
  H31      1.0000 0.84355  0.62911  0.78603  Biso   1.000  H 
  H32      1.0000 0.86452  0.69428  0.21454  Biso   1.000  H 
  H33      1.0000 0.73852  0.80545  0.78575  Biso   1.000  H 
  H34      1.0000 0.42001  0.90126  0.69818  Biso   1.000  H 
  H35      1.0000 0.41999  0.09871  0.19817  Biso   1.000  H 
  H36      1.0000 0.58957  0.89825  0.80179  Biso   1.000  H 
  H37      1.0000 0.21742  0.24149  0.21387  Biso   1.000  H 
  H38      1.0000 0.08956  0.39825  0.80180  Biso   1.000  H 
  H39      1.0000 0.34354  0.12911  0.78600  Biso   1.000  H 
  H40      1.0000 0.59090  0.90181  0.19814  Biso   1.000  H 
  H41      1.0000 0.77210  0.69293  0.78551  Biso   1.000  H 
  H42      1.0000 0.29281  0.25738  0.21396  Biso   1.000  H 
  H43      1.0000 0.58956  0.10177  0.30179  Biso   1.000  H 
  H44      1.0000 0.84354  0.37089  0.28602  Biso   1.000  H 
  H45      1.0000 0.14585  0.69497  0.71443  Biso   1.000  H 
  H46      1.0000 0.21743  0.75852  0.71387  Biso   1.000  H 
  H47      1.0000 0.91999  0.59873  0.19819  Biso   1.000  H 
  H48      1.0000 0.36453  0.19430  0.21454  Biso   1.000  H 
  N1       1.0000 0.46392  0.05888  0.59473  Biso   1.000  N 
  N2       1.0000 0.96371  0.55870  0.40462  Biso   1.000  N 
  N3       1.0000 0.04722  0.55845  0.90454  Biso   1.000  N 
  N4       1.0000 0.96393  0.55888  0.59473  Biso   1.000  N 
  N5       1.0000 0.54691  0.94077  0.59464  Biso   1.000  N 
  N6       1.0000 0.46371  0.05869  0.40463  Biso   1.000  N 
  N7       1.0000 0.54721  0.94155  0.40454  Biso   1.000  N 
  N8       1.0000 0.96392  0.44113  0.09473  Biso   1.000  N 
  N9       1.0000 0.54691  0.05924  0.09464  Biso   1.000  N 
  N10      1.0000 0.04721  0.44156  0.40454  Biso   1.000  N 
  N11      1.0000 0.04691  0.55924  0.09463  Biso   1.000  N 
  N12      1.0000 0.96371  0.44131  0.90463  Biso   1.000  N 
  N13      1.0000 0.46372  0.94130  0.90463  Biso   1.000  N 
  N14      1.0000 0.46392  0.94113  0.09474  Biso   1.000  N 
  N15      1.0000 0.54722  0.05845  0.90454  Biso   1.000  N 
  N16      1.0000 0.04691  0.44077  0.59463  Biso   1.000  N 
  Zn1      1.0000 0.50545  0.99978  0.74969  Biso   1.000  Zn
  Zn2      1.0000 0.50544  0.00023  0.24968  Biso   1.000  Zn
  Zn3      1.0000 0.00544  0.50023  0.24968  Biso   1.000  Zn
  Zn4      1.0000 0.00545  0.49978  0.74967  Biso   1.000  Zn
