data_image0
_cell_length_a       33.2712
_cell_length_b       10.1496
_cell_length_c       7.27432
_cell_angle_alpha    89.9854
_cell_angle_beta     90.0982
_cell_angle_gamma    90

_symmetry_space_group_name_H-M    "P 1"
_symmetry_int_tables_number       1

loop_
  _symmetry_equiv_pos_as_xyz
  'x, y, z'

loop_
  _atom_site_label
  _atom_site_occupancy
  _atom_site_fract_x
  _atom_site_fract_y
  _atom_site_fract_z
  _atom_site_thermal_displace_type
  _atom_site_B_iso_or_equiv
  _atom_site_type_symbol
  C1       1.0000 0.86194  0.30211  0.00275  Biso   1.000  C 
  C2       1.0000 0.17199  0.32647  0.65816  Biso   1.000  C 
  C3       1.0000 0.14869  0.30146  0.50018  Biso   1.000  C 
  C4       1.0000 0.64869  0.80148  0.50010  Biso   1.000  C 
  C5       1.0000 0.58163  0.86500  0.34530  Biso   1.000  C 
  C6       1.0000 0.57983  0.14849  0.14744  Biso   1.000  C 
  C7       1.0000 0.36194  0.19786  0.50267  Biso   1.000  C 
  C8       1.0000 0.33844  0.16955  0.65862  Biso   1.000  C 
  C9       1.0000 0.84214  0.74841  0.34678  Biso   1.000  C 
  C10      1.0000 0.80075  0.76805  0.34607  Biso   1.000  C 
  C11      1.0000 0.93003  0.36108  0.15133  Biso   1.000  C 
  C12      1.0000 0.08163  0.36501  0.34539  Biso   1.000  C 
  C13      1.0000 0.77726  0.26055  0.00178  Biso   1.000  C 
  C14      1.0000 0.84215  0.25158  0.84686  Biso   1.000  C 
  C15      1.0000 0.60573  0.83219  0.49749  Biso   1.000  C 
  C16      1.0000 0.14869  0.69854  0.00015  Biso   1.000  C 
  C17      1.0000 0.29714  0.19052  0.65846  Biso   1.000  C 
  C18      1.0000 0.43003  0.86105  0.15124  Biso   1.000  C 
  C19      1.0000 0.08163  0.63500  0.84535  Biso   1.000  C 
  C20      1.0000 0.42986  0.85568  0.84853  Biso   1.000  C 
  C21      1.0000 0.60573  0.16782  0.99749  Biso   1.000  C 
  C22      1.0000 0.58164  0.13499  0.84529  Biso   1.000  C 
  C23      1.0000 0.66867  0.24610  0.84318  Biso   1.000  C 
  C24      1.0000 0.10573  0.33217  0.49758  Biso   1.000  C 
  C25      1.0000 0.92987  0.64436  0.34858  Biso   1.000  C 
  C26      1.0000 0.21004  0.76605  0.84358  Biso   1.000  C 
  C27      1.0000 0.90492  0.33245  0.00102  Biso   1.000  C 
  C28      1.0000 0.64869  0.19852  0.00011  Biso   1.000  C 
  C29      1.0000 0.67199  0.17351  0.15812  Biso   1.000  C 
  C30      1.0000 0.71327  0.19471  0.15893  Biso   1.000  C 
  C31      1.0000 0.17199  0.67354  0.15816  Biso   1.000  C 
  C32      1.0000 0.21327  0.69476  0.15894  Biso   1.000  C 
  C33      1.0000 0.23333  0.74061  0.00128  Biso   1.000  C 
  C34      1.0000 0.27726  0.23942  0.50178  Biso   1.000  C 
  C35      1.0000 0.40492  0.16752  0.50093  Biso   1.000  C 
  C36      1.0000 0.21328  0.30526  0.65894  Biso   1.000  C 
  C37      1.0000 0.07984  0.35152  0.64755  Biso   1.000  C 
  C38      1.0000 0.43004  0.13897  0.65122  Biso   1.000  C 
  C39      1.0000 0.30074  0.73199  0.84609  Biso   1.000  C 
  C40      1.0000 0.30074  0.26804  0.34609  Biso   1.000  C 
  C41      1.0000 0.34214  0.24840  0.34678  Biso   1.000  C 
  C42      1.0000 0.86194  0.69786  0.50268  Biso   1.000  C 
  C43      1.0000 0.83843  0.66956  0.65861  Biso   1.000  C 
  C44      1.0000 0.79714  0.69054  0.65843  Biso   1.000  C 
  C45      1.0000 0.34214  0.75162  0.84679  Biso   1.000  C 
  C46      1.0000 0.77726  0.73944  0.50175  Biso   1.000  C 
  C47      1.0000 0.92987  0.35563  0.84864  Biso   1.000  C 
  C48      1.0000 0.21004  0.23398  0.34362  Biso   1.000  C 
  C49      1.0000 0.40492  0.83248  0.00093  Biso   1.000  C 
  C50      1.0000 0.16866  0.74613  0.84322  Biso   1.000  C 
  C51      1.0000 0.73334  0.24055  0.00128  Biso   1.000  C 
  C52      1.0000 0.71005  0.26600  0.84357  Biso   1.000  C 
  C53      1.0000 0.10573  0.66783  0.99754  Biso   1.000  C 
  C54      1.0000 0.90492  0.66753  0.50096  Biso   1.000  C 
  C55      1.0000 0.29713  0.80948  0.15842  Biso   1.000  C 
  C56      1.0000 0.33843  0.83044  0.15859  Biso   1.000  C 
  C57      1.0000 0.23334  0.25941  0.50130  Biso   1.000  C 
  C58      1.0000 0.27726  0.76060  0.00177  Biso   1.000  C 
  C59      1.0000 0.07983  0.64851  0.14750  Biso   1.000  C 
  C60      1.0000 0.42985  0.14431  0.34852  Biso   1.000  C 
  C61      1.0000 0.66866  0.75391  0.34320  Biso   1.000  C 
  C62      1.0000 0.71005  0.73400  0.34357  Biso   1.000  C 
  C63      1.0000 0.16866  0.25388  0.34327  Biso   1.000  C 
  C64      1.0000 0.57984  0.85154  0.64746  Biso   1.000  C 
  C65      1.0000 0.67199  0.82648  0.65809  Biso   1.000  C 
  C66      1.0000 0.71328  0.80527  0.65888  Biso   1.000  C 
  C67      1.0000 0.73334  0.75943  0.50126  Biso   1.000  C 
  C68      1.0000 0.93003  0.63892  0.65127  Biso   1.000  C 
  C69      1.0000 0.80075  0.23193  0.84614  Biso   1.000  C 
  C70      1.0000 0.83843  0.33041  0.15864  Biso   1.000  C 
  C71      1.0000 0.79714  0.30944  0.15845  Biso   1.000  C 
  C72      1.0000 0.36194  0.80215  0.00266  Biso   1.000  C 
  H1       1.0000 0.92357  0.35686  0.29740  Biso   1.000  H 
  H2       1.0000 0.77970  0.33588  0.27989  Biso   1.000  H 
  H3       1.0000 0.92295  0.34906  0.70307  Biso   1.000  H 
  H4       1.0000 0.65144  0.26918  0.71948  Biso   1.000  H 
  H5       1.0000 0.72455  0.30487  0.72049  Biso   1.000  H 
  H6       1.0000 0.08551  0.66197  0.29329  Biso   1.000  H 
  H7       1.0000 0.23057  0.67071  0.28202  Biso   1.000  H 
  H8       1.0000 0.08941  0.36750  0.20058  Biso   1.000  H 
  H9       1.0000 0.28638  0.69092  0.72386  Biso   1.000  H 
  H10      1.0000 0.35248  0.87378  0.28001  Biso   1.000  H 
  H11      1.0000 0.58943  0.13251  0.70048  Biso   1.000  H 
  H12      1.0000 0.92357  0.64313  0.79732  Biso   1.000  H 
  H13      1.0000 0.72454  0.69514  0.22051  Biso   1.000  H 
  H14      1.0000 0.85948  0.22612  0.72467  Biso   1.000  H 
  H15      1.0000 0.15776  0.63235  0.28038  Biso   1.000  H 
  H16      1.0000 0.27970  0.83592  0.27987  Biso   1.000  H 
  H17      1.0000 0.35946  0.72617  0.72459  Biso   1.000  H 
  H18      1.0000 0.42359  0.14322  0.79728  Biso   1.000  H 
  H19      1.0000 0.65143  0.73083  0.21952  Biso   1.000  H 
  H20      1.0000 0.78640  0.19086  0.72389  Biso   1.000  H 
  H21      1.0000 0.23058  0.32930  0.78200  Biso   1.000  H 
  H22      1.0000 0.08943  0.63249  0.70055  Biso   1.000  H 
  H23      1.0000 0.15776  0.36766  0.78036  Biso   1.000  H 
  H24      1.0000 0.65775  0.13231  0.28034  Biso   1.000  H 
  H25      1.0000 0.22453  0.19512  0.22056  Biso   1.000  H 
  H26      1.0000 0.42357  0.85680  0.29729  Biso   1.000  H 
  H27      1.0000 0.27971  0.16405  0.77992  Biso   1.000  H 
  H28      1.0000 0.85248  0.62620  0.78006  Biso   1.000  H 
  H29      1.0000 0.73058  0.82931  0.78196  Biso   1.000  H 
  H30      1.0000 0.15143  0.23081  0.21960  Biso   1.000  H 
  H31      1.0000 0.85947  0.77386  0.22457  Biso   1.000  H 
  H32      1.0000 0.42291  0.15082  0.20295  Biso   1.000  H 
  H33      1.0000 0.78639  0.80913  0.22381  Biso   1.000  H 
  H34      1.0000 0.58550  0.16195  0.29323  Biso   1.000  H 
  H35      1.0000 0.65776  0.86767  0.78029  Biso   1.000  H 
  H36      1.0000 0.58552  0.83810  0.79326  Biso   1.000  H 
  H37      1.0000 0.73057  0.17066  0.28201  Biso   1.000  H 
  H38      1.0000 0.08552  0.33806  0.79335  Biso   1.000  H 
  H39      1.0000 0.22453  0.80491  0.72051  Biso   1.000  H 
  H40      1.0000 0.77970  0.66408  0.77989  Biso   1.000  H 
  H41      1.0000 0.85247  0.37377  0.28007  Biso   1.000  H 
  H42      1.0000 0.35946  0.27387  0.22456  Biso   1.000  H 
  H43      1.0000 0.42293  0.84915  0.70297  Biso   1.000  H 
  H44      1.0000 0.58941  0.86747  0.20049  Biso   1.000  H 
  H45      1.0000 0.35249  0.12619  0.78004  Biso   1.000  H 
  H46      1.0000 0.15143  0.76921  0.71952  Biso   1.000  H 
  H47      1.0000 0.28638  0.30911  0.22385  Biso   1.000  H 
  H48      1.0000 0.92293  0.65091  0.20301  Biso   1.000  H 
  N1       1.0000 0.96648  0.59921  0.59239  Biso   1.000  N 
  N2       1.0000 0.04487  0.59631  0.90144  Biso   1.000  N 
  N3       1.0000 0.46636  0.10236  0.40440  Biso   1.000  N 
  N4       1.0000 0.54369  0.89495  0.58891  Biso   1.000  N 
  N5       1.0000 0.54487  0.90369  0.40140  Biso   1.000  N 
  N6       1.0000 0.96648  0.40079  0.09245  Biso   1.000  N 
  N7       1.0000 0.96637  0.60240  0.40448  Biso   1.000  N 
  N8       1.0000 0.46648  0.09924  0.59231  Biso   1.000  N 
  N9       1.0000 0.04487  0.40371  0.40149  Biso   1.000  N 
  N10      1.0000 0.46647  0.90076  0.09234  Biso   1.000  N 
  N11      1.0000 0.04369  0.39494  0.58899  Biso   1.000  N 
  N12      1.0000 0.54368  0.10507  0.08887  Biso   1.000  N 
  N13      1.0000 0.04368  0.60509  0.08894  Biso   1.000  N 
  N14      1.0000 0.46637  0.89763  0.90444  Biso   1.000  N 
  N15      1.0000 0.96637  0.39760  0.90454  Biso   1.000  N 
  N16      1.0000 0.54487  0.09630  0.90138  Biso   1.000  N 
  Zn1      1.0000 0.50535  0.99658  0.74667  Biso   1.000  Zn
  Zn2      1.0000 0.50533  0.00341  0.24667  Biso   1.000  Zn
  Zn3      1.0000 0.00534  0.50348  0.24669  Biso   1.000  Zn
  Zn4      1.0000 0.00535  0.49654  0.74668  Biso   1.000  Zn
