data_image0
_cell_length_a       32.8735
_cell_length_b       11.8437
_cell_length_c       7.22724
_cell_angle_alpha    89.993
_cell_angle_beta     90.1299
_cell_angle_gamma    89.9995

_symmetry_space_group_name_H-M    "P 1"
_symmetry_int_tables_number       1

loop_
  _symmetry_equiv_pos_as_xyz
  'x, y, z'

loop_
  _atom_site_label
  _atom_site_occupancy
  _atom_site_fract_x
  _atom_site_fract_y
  _atom_site_fract_z
  _atom_site_thermal_displace_type
  _atom_site_B_iso_or_equiv
  _atom_site_type_symbol
  C1       1.0000 0.86171  0.31711  0.00197  Biso   1.000  C 
  C2       1.0000 0.73338  0.23722  0.00081  Biso   1.000  C 
  C3       1.0000 0.16797  0.72749  0.84183  Biso   1.000  C 
  C4       1.0000 0.40455  0.85015  0.00063  Biso   1.000  C 
  C5       1.0000 0.20927  0.24682  0.34188  Biso   1.000  C 
  C6       1.0000 0.29628  0.80880  0.15931  Biso   1.000  C 
  C7       1.0000 0.92938  0.37383  0.84737  Biso   1.000  C 
  C8       1.0000 0.10610  0.65017  0.99857  Biso   1.000  C 
  C9       1.0000 0.77720  0.73605  0.50109  Biso   1.000  C 
  C10      1.0000 0.79628  0.69121  0.65932  Biso   1.000  C 
  C11      1.0000 0.83748  0.66473  0.65958  Biso   1.000  C 
  C12      1.0000 0.86171  0.68289  0.50197  Biso   1.000  C 
  C13      1.0000 0.34274  0.22871  0.34422  Biso   1.000  C 
  C14      1.0000 0.30142  0.25416  0.34358  Biso   1.000  C 
  C15      1.0000 0.30142  0.74586  0.84359  Biso   1.000  C 
  C16      1.0000 0.34274  0.77131  0.84425  Biso   1.000  C 
  C17      1.0000 0.90456  0.64987  0.50065  Biso   1.000  C 
  C18      1.0000 0.27719  0.76396  0.00109  Biso   1.000  C 
  C19      1.0000 0.33747  0.83528  0.15956  Biso   1.000  C 
  C20      1.0000 0.79628  0.30880  0.15931  Biso   1.000  C 
  C21      1.0000 0.36171  0.81713  0.00196  Biso   1.000  C 
  C22      1.0000 0.80143  0.24584  0.84360  Biso   1.000  C 
  C23      1.0000 0.92974  0.62397  0.65223  Biso   1.000  C 
  C24      1.0000 0.73338  0.76279  0.50081  Biso   1.000  C 
  C25      1.0000 0.71421  0.80564  0.65988  Biso   1.000  C 
  C26      1.0000 0.67303  0.83238  0.65952  Biso   1.000  C 
  C27      1.0000 0.83748  0.33527  0.15957  Biso   1.000  C 
  C28      1.0000 0.16797  0.27252  0.34187  Biso   1.000  C 
  C29      1.0000 0.70926  0.74681  0.34187  Biso   1.000  C 
  C30      1.0000 0.66797  0.77250  0.34185  Biso   1.000  C 
  C31      1.0000 0.58041  0.87053  0.64992  Biso   1.000  C 
  C32      1.0000 0.42938  0.12615  0.34730  Biso   1.000  C 
  C33      1.0000 0.08041  0.62946  0.14992  Biso   1.000  C 
  C34      1.0000 0.23338  0.26278  0.50082  Biso   1.000  C 
  C35      1.0000 0.42974  0.12398  0.65218  Biso   1.000  C 
  C36      1.0000 0.70927  0.25318  0.84184  Biso   1.000  C 
  C37      1.0000 0.21421  0.30562  0.65991  Biso   1.000  C 
  C38      1.0000 0.40456  0.14986  0.50060  Biso   1.000  C 
  C39      1.0000 0.60610  0.84983  0.49857  Biso   1.000  C 
  C40      1.0000 0.84274  0.27129  0.84426  Biso   1.000  C 
  C41      1.0000 0.77720  0.26395  0.00109  Biso   1.000  C 
  C42      1.0000 0.08186  0.37907  0.34545  Biso   1.000  C 
  C43      1.0000 0.92973  0.37603  0.15225  Biso   1.000  C 
  C44      1.0000 0.80142  0.75416  0.34358  Biso   1.000  C 
  C45      1.0000 0.14891  0.68357  0.00041  Biso   1.000  C 
  C46      1.0000 0.84274  0.72870  0.34424  Biso   1.000  C 
  C47      1.0000 0.36172  0.18289  0.50194  Biso   1.000  C 
  C48      1.0000 0.58041  0.12946  0.14990  Biso   1.000  C 
  C49      1.0000 0.58186  0.87906  0.34540  Biso   1.000  C 
  C50      1.0000 0.64891  0.81644  0.50041  Biso   1.000  C 
  C51      1.0000 0.14891  0.31645  0.50044  Biso   1.000  C 
  C52      1.0000 0.17303  0.33237  0.65956  Biso   1.000  C 
  C53      1.0000 0.33748  0.16472  0.65955  Biso   1.000  C 
  C54      1.0000 0.29629  0.19120  0.65932  Biso   1.000  C 
  C55      1.0000 0.42973  0.87603  0.15221  Biso   1.000  C 
  C56      1.0000 0.08186  0.62092  0.84542  Biso   1.000  C 
  C57      1.0000 0.27720  0.23605  0.50109  Biso   1.000  C 
  C58      1.0000 0.23338  0.73722  0.00081  Biso   1.000  C 
  C59      1.0000 0.21420  0.69438  0.15990  Biso   1.000  C 
  C60      1.0000 0.17302  0.66764  0.15954  Biso   1.000  C 
  C61      1.0000 0.71420  0.19439  0.15990  Biso   1.000  C 
  C62      1.0000 0.67302  0.16765  0.15954  Biso   1.000  C 
  C63      1.0000 0.64891  0.18356  0.00040  Biso   1.000  C 
  C64      1.0000 0.90456  0.35013  0.00066  Biso   1.000  C 
  C65      1.0000 0.20926  0.75319  0.84184  Biso   1.000  C 
  C66      1.0000 0.92938  0.62616  0.34735  Biso   1.000  C 
  C67      1.0000 0.10610  0.34984  0.49860  Biso   1.000  C 
  C68      1.0000 0.66798  0.22748  0.84182  Biso   1.000  C 
  C69      1.0000 0.58187  0.12091  0.84539  Biso   1.000  C 
  C70      1.0000 0.08041  0.37054  0.64996  Biso   1.000  C 
  C71      1.0000 0.60610  0.15016  0.99855  Biso   1.000  C 
  C72      1.0000 0.42938  0.87385  0.84733  Biso   1.000  C 
  H1       1.0000 0.73223  0.17813  0.28401  Biso   1.000  H 
  H2       1.0000 0.85080  0.62595  0.78256  Biso   1.000  H 
  H3       1.0000 0.73224  0.82192  0.78397  Biso   1.000  H 
  H4       1.0000 0.15003  0.25690  0.21727  Biso   1.000  H 
  H5       1.0000 0.86073  0.74597  0.22072  Biso   1.000  H 
  H6       1.0000 0.42233  0.13109  0.20073  Biso   1.000  H 
  H7       1.0000 0.78781  0.79136  0.21997  Biso   1.000  H 
  H8       1.0000 0.58623  0.14010  0.29674  Biso   1.000  H 
  H9       1.0000 0.65961  0.86980  0.78315  Biso   1.000  H 
  H10      1.0000 0.58624  0.85991  0.79677  Biso   1.000  H 
  H11      1.0000 0.22294  0.78900  0.71756  Biso   1.000  H 
  H12      1.0000 0.08624  0.35992  0.79681  Biso   1.000  H 
  H13      1.0000 0.28781  0.29137  0.21998  Biso   1.000  H 
  H14      1.0000 0.15003  0.74312  0.71721  Biso   1.000  H 
  H15      1.0000 0.35081  0.12593  0.78252  Biso   1.000  H 
  H16      1.0000 0.58946  0.87918  0.19932  Biso   1.000  H 
  H17      1.0000 0.22294  0.21101  0.21759  Biso   1.000  H 
  H18      1.0000 0.92233  0.63112  0.20078  Biso   1.000  H 
  H19      1.0000 0.36073  0.24598  0.22070  Biso   1.000  H 
  H20      1.0000 0.85080  0.37406  0.28253  Biso   1.000  H 
  H21      1.0000 0.77817  0.67331  0.78221  Biso   1.000  H 
  H22      1.0000 0.42233  0.86889  0.70076  Biso   1.000  H 
  H23      1.0000 0.42338  0.87066  0.29926  Biso   1.000  H 
  H24      1.0000 0.27818  0.17328  0.78222  Biso   1.000  H 
  H25      1.0000 0.65960  0.13025  0.28319  Biso   1.000  H 
  H26      1.0000 0.08946  0.62079  0.69933  Biso   1.000  H 
  H27      1.0000 0.08946  0.37920  0.19936  Biso   1.000  H 
  H28      1.0000 0.08624  0.64009  0.29678  Biso   1.000  H 
  H29      1.0000 0.65003  0.24310  0.71720  Biso   1.000  H 
  H30      1.0000 0.72295  0.28898  0.71755  Biso   1.000  H 
  H31      1.0000 0.28782  0.70865  0.72000  Biso   1.000  H 
  H32      1.0000 0.92234  0.36887  0.70080  Biso   1.000  H 
  H33      1.0000 0.77817  0.32671  0.28218  Biso   1.000  H 
  H34      1.0000 0.92338  0.37067  0.29929  Biso   1.000  H 
  H35      1.0000 0.23224  0.67811  0.28400  Biso   1.000  H 
  H36      1.0000 0.35080  0.87407  0.28252  Biso   1.000  H 
  H37      1.0000 0.15961  0.36977  0.78320  Biso   1.000  H 
  H38      1.0000 0.92339  0.62934  0.79928  Biso   1.000  H 
  H39      1.0000 0.72294  0.71099  0.21760  Biso   1.000  H 
  H40      1.0000 0.86074  0.25402  0.72076  Biso   1.000  H 
  H41      1.0000 0.15960  0.63022  0.28318  Biso   1.000  H 
  H42      1.0000 0.27816  0.82672  0.28218  Biso   1.000  H 
  H43      1.0000 0.36073  0.75404  0.72075  Biso   1.000  H 
  H44      1.0000 0.58947  0.12077  0.69931  Biso   1.000  H 
  H45      1.0000 0.42340  0.12936  0.79923  Biso   1.000  H 
  H46      1.0000 0.65003  0.75686  0.21725  Biso   1.000  H 
  H47      1.0000 0.78782  0.20862  0.72001  Biso   1.000  H 
  H48      1.0000 0.23225  0.32188  0.78400  Biso   1.000  H 
  N1       1.0000 0.96592  0.41245  0.90414  Biso   1.000  N 
  N2       1.0000 0.46592  0.91245  0.90409  Biso   1.000  N 
  N3       1.0000 0.04419  0.58966  0.09095  Biso   1.000  N 
  N4       1.0000 0.54419  0.08966  0.09090  Biso   1.000  N 
  N5       1.0000 0.04516  0.41591  0.40228  Biso   1.000  N 
  N6       1.0000 0.04420  0.41033  0.59098  Biso   1.000  N 
  N7       1.0000 0.46616  0.91362  0.09305  Biso   1.000  N 
  N8       1.0000 0.54516  0.08406  0.90221  Biso   1.000  N 
  N9       1.0000 0.46616  0.08638  0.59303  Biso   1.000  N 
  N10      1.0000 0.96616  0.58637  0.59309  Biso   1.000  N 
  N11      1.0000 0.96592  0.58754  0.40412  Biso   1.000  N 
  N12      1.0000 0.96616  0.41363  0.09311  Biso   1.000  N 
  N13      1.0000 0.54515  0.91590  0.40222  Biso   1.000  N 
  N14      1.0000 0.54419  0.91031  0.59093  Biso   1.000  N 
  N15      1.0000 0.46592  0.08753  0.40407  Biso   1.000  N 
  N16      1.0000 0.04516  0.58407  0.90225  Biso   1.000  N 
  Zn1      1.0000 0.50535  0.00206  0.24741  Biso   1.000  Zn
  Zn2      1.0000 0.00535  0.50207  0.24748  Biso   1.000  Zn
  Zn3      1.0000 0.50535  0.99791  0.74742  Biso   1.000  Zn
  Zn4      1.0000 0.00536  0.49791  0.74747  Biso   1.000  Zn
