data_image0
_cell_length_a       28.1961
_cell_length_b       21.3381
_cell_length_c       7.2034
_cell_angle_alpha    89.9897
_cell_angle_beta     90.5305
_cell_angle_gamma    90.0001

_symmetry_space_group_name_H-M    "P 1"
_symmetry_int_tables_number       1

loop_
  _symmetry_equiv_pos_as_xyz
  'x, y, z'

loop_
  _atom_site_label
  _atom_site_occupancy
  _atom_site_fract_x
  _atom_site_fract_y
  _atom_site_fract_z
  _atom_site_thermal_displace_type
  _atom_site_B_iso_or_equiv
  _atom_site_type_symbol
  C1       1.0000 0.85933  0.34685  0.00051  Biso   1.000  C 
  C2       1.0000 0.58530  0.91359  0.34607  Biso   1.000  C 
  C3       1.0000 0.58384  0.09004  0.15186  Biso   1.000  C 
  C4       1.0000 0.42596  0.91267  0.15251  Biso   1.000  C 
  C5       1.0000 0.23395  0.72995  0.00075  Biso   1.000  C 
  C6       1.0000 0.22012  0.69698  0.16053  Biso   1.000  C 
  C7       1.0000 0.35932  0.15314  0.50046  Biso   1.000  C 
  C8       1.0000 0.33113  0.15896  0.65977  Biso   1.000  C 
  C9       1.0000 0.84531  0.68704  0.34160  Biso   1.000  C 
  C10      1.0000 0.80495  0.72450  0.34172  Biso   1.000  C 
  C11      1.0000 0.92597  0.41266  0.15257  Biso   1.000  C 
  C12      1.0000 0.08529  0.41358  0.34612  Biso   1.000  C 
  C13      1.0000 0.77679  0.26965  0.00097  Biso   1.000  C 
  C14      1.0000 0.84534  0.31296  0.84162  Biso   1.000  C 
  C15      1.0000 0.60934  0.88725  0.49916  Biso   1.000  C 
  C16      1.0000 0.15132  0.65295  0.99984  Biso   1.000  C 
  C17      1.0000 0.29098  0.19680  0.66019  Biso   1.000  C 
  C18      1.0000 0.17991  0.65924  0.15993  Biso   1.000  C 
  C19      1.0000 0.08532  0.58641  0.84611  Biso   1.000  C 
  C20      1.0000 0.60935  0.11275  0.99916  Biso   1.000  C 
  C21      1.0000 0.42604  0.91084  0.84649  Biso   1.000  C 
  C22      1.0000 0.58533  0.08640  0.84607  Biso   1.000  C 
  C23      1.0000 0.66497  0.18623  0.84036  Biso   1.000  C 
  C24      1.0000 0.10933  0.38724  0.49921  Biso   1.000  C 
  C25      1.0000 0.92601  0.58914  0.34654  Biso   1.000  C 
  C26      1.0000 0.20537  0.72361  0.84068  Biso   1.000  C 
  C27      1.0000 0.73396  0.22994  0.00080  Biso   1.000  C 
  C28      1.0000 0.65133  0.15294  0.99984  Biso   1.000  C 
  C29      1.0000 0.67992  0.15922  0.15993  Biso   1.000  C 
  C30      1.0000 0.72012  0.19696  0.16055  Biso   1.000  C 
  C31      1.0000 0.70538  0.22361  0.84073  Biso   1.000  C 
  C32      1.0000 0.08386  0.40998  0.65192  Biso   1.000  C 
  C33      1.0000 0.90125  0.38716  0.99986  Biso   1.000  C 
  C34      1.0000 0.27677  0.23035  0.50096  Biso   1.000  C 
  C35      1.0000 0.40124  0.11284  0.49982  Biso   1.000  C 
  C36      1.0000 0.65132  0.84706  0.49985  Biso   1.000  C 
  C37      1.0000 0.16496  0.68623  0.84035  Biso   1.000  C 
  C38      1.0000 0.42598  0.08736  0.65252  Biso   1.000  C 
  C39      1.0000 0.30497  0.77550  0.84168  Biso   1.000  C 
  C40      1.0000 0.30495  0.22451  0.34170  Biso   1.000  C 
  C41      1.0000 0.34531  0.18705  0.34158  Biso   1.000  C 
  C42      1.0000 0.85932  0.65314  0.50049  Biso   1.000  C 
  C43      1.0000 0.83113  0.65896  0.65981  Biso   1.000  C 
  C44      1.0000 0.79099  0.69680  0.66022  Biso   1.000  C 
  C45      1.0000 0.34533  0.81296  0.84156  Biso   1.000  C 
  C46      1.0000 0.77677  0.73034  0.50097  Biso   1.000  C 
  C47      1.0000 0.92604  0.41084  0.84656  Biso   1.000  C 
  C48      1.0000 0.08385  0.59004  0.15190  Biso   1.000  C 
  C49      1.0000 0.27678  0.76966  0.00091  Biso   1.000  C 
  C50      1.0000 0.29098  0.80320  0.16012  Biso   1.000  C 
  C51      1.0000 0.20536  0.27640  0.34076  Biso   1.000  C 
  C52      1.0000 0.40125  0.88716  0.99980  Biso   1.000  C 
  C53      1.0000 0.10934  0.61276  0.99918  Biso   1.000  C 
  C54      1.0000 0.90124  0.61284  0.49986  Biso   1.000  C 
  C55      1.0000 0.42601  0.08915  0.34650  Biso   1.000  C 
  C56      1.0000 0.33112  0.84105  0.15972  Biso   1.000  C 
  C57      1.0000 0.23395  0.27005  0.50080  Biso   1.000  C 
  C58      1.0000 0.58386  0.90998  0.65188  Biso   1.000  C 
  C59      1.0000 0.83113  0.34102  0.15980  Biso   1.000  C 
  C60      1.0000 0.22012  0.30302  0.66056  Biso   1.000  C 
  C61      1.0000 0.66495  0.81377  0.34039  Biso   1.000  C 
  C62      1.0000 0.70536  0.77639  0.34075  Biso   1.000  C 
  C63      1.0000 0.16495  0.31377  0.34041  Biso   1.000  C 
  C64      1.0000 0.17991  0.34076  0.65996  Biso   1.000  C 
  C65      1.0000 0.67992  0.84077  0.65992  Biso   1.000  C 
  C66      1.0000 0.72012  0.80303  0.66054  Biso   1.000  C 
  C67      1.0000 0.73395  0.77005  0.50080  Biso   1.000  C 
  C68      1.0000 0.92598  0.58736  0.65257  Biso   1.000  C 
  C69      1.0000 0.80498  0.27550  0.84173  Biso   1.000  C 
  C70      1.0000 0.15131  0.34705  0.49988  Biso   1.000  C 
  C71      1.0000 0.35932  0.84686  0.00043  Biso   1.000  C 
  C72      1.0000 0.79099  0.30318  0.16021  Biso   1.000  C 
  H1       1.0000 0.36692  0.81501  0.71677  Biso   1.000  H 
  H2       1.0000 0.64300  0.18385  0.71503  Biso   1.000  H 
  H3       1.0000 0.29576  0.74884  0.71727  Biso   1.000  H 
  H4       1.0000 0.24210  0.69947  0.28573  Biso   1.000  H 
  H5       1.0000 0.76935  0.30104  0.28481  Biso   1.000  H 
  H6       1.0000 0.71429  0.24988  0.71587  Biso   1.000  H 
  H7       1.0000 0.91926  0.40448  0.69916  Biso   1.000  H 
  H8       1.0000 0.09293  0.59007  0.69902  Biso   1.000  H 
  H9       1.0000 0.08927  0.59857  0.29915  Biso   1.000  H 
  H10      1.0000 0.34014  0.86780  0.28419  Biso   1.000  H 
  H11      1.0000 0.17115  0.63286  0.28476  Biso   1.000  H 
  H12      1.0000 0.91982  0.59312  0.80014  Biso   1.000  H 
  H13      1.0000 0.41982  0.09312  0.80009  Biso   1.000  H 
  H14      1.0000 0.59295  0.09005  0.69899  Biso   1.000  H 
  H15      1.0000 0.86692  0.31503  0.71681  Biso   1.000  H 
  H16      1.0000 0.79576  0.24885  0.71731  Biso   1.000  H 
  H17      1.0000 0.91978  0.40691  0.30015  Biso   1.000  H 
  H18      1.0000 0.64298  0.81616  0.21507  Biso   1.000  H 
  H19      1.0000 0.71427  0.75012  0.21591  Biso   1.000  H 
  H20      1.0000 0.24211  0.30053  0.78575  Biso   1.000  H 
  H21      1.0000 0.26933  0.80107  0.28472  Biso   1.000  H 
  H22      1.0000 0.09289  0.40990  0.19903  Biso   1.000  H 
  H23      1.0000 0.67115  0.13283  0.28475  Biso   1.000  H 
  H24      1.0000 0.17116  0.36714  0.78478  Biso   1.000  H 
  H25      1.0000 0.74210  0.19944  0.28576  Biso   1.000  H 
  H26      1.0000 0.26934  0.19893  0.78481  Biso   1.000  H 
  H27      1.0000 0.41977  0.90692  0.30008  Biso   1.000  H 
  H28      1.0000 0.14297  0.31616  0.21509  Biso   1.000  H 
  H29      1.0000 0.67116  0.86715  0.78473  Biso   1.000  H 
  H30      1.0000 0.79573  0.75116  0.21728  Biso   1.000  H 
  H31      1.0000 0.84017  0.63221  0.78431  Biso   1.000  H 
  H32      1.0000 0.86689  0.68498  0.21678  Biso   1.000  H 
  H33      1.0000 0.74210  0.80054  0.78574  Biso   1.000  H 
  H34      1.0000 0.41926  0.90449  0.69910  Biso   1.000  H 
  H35      1.0000 0.41921  0.09549  0.19911  Biso   1.000  H 
  H36      1.0000 0.58929  0.90147  0.79913  Biso   1.000  H 
  H37      1.0000 0.21426  0.25013  0.21591  Biso   1.000  H 
  H38      1.0000 0.08929  0.40147  0.79918  Biso   1.000  H 
  H39      1.0000 0.34016  0.13220  0.78427  Biso   1.000  H 
  H40      1.0000 0.59290  0.90991  0.19898  Biso   1.000  H 
  H41      1.0000 0.76935  0.69894  0.78484  Biso   1.000  H 
  H42      1.0000 0.29573  0.25117  0.21727  Biso   1.000  H 
  H43      1.0000 0.58926  0.09857  0.29911  Biso   1.000  H 
  H44      1.0000 0.84017  0.36776  0.28430  Biso   1.000  H 
  H45      1.0000 0.14300  0.68384  0.71501  Biso   1.000  H 
  H46      1.0000 0.21429  0.74987  0.71581  Biso   1.000  H 
  H47      1.0000 0.91921  0.59548  0.19915  Biso   1.000  H 
  H48      1.0000 0.36689  0.18499  0.21675  Biso   1.000  H 
  N1       1.0000 0.46226  0.05166  0.59369  Biso   1.000  N 
  N2       1.0000 0.96225  0.55269  0.40450  Biso   1.000  N 
  N3       1.0000 0.04880  0.55099  0.90427  Biso   1.000  N 
  N4       1.0000 0.96227  0.55167  0.59375  Biso   1.000  N 
  N5       1.0000 0.54781  0.94664  0.59328  Biso   1.000  N 
  N6       1.0000 0.46225  0.05269  0.40444  Biso   1.000  N 
  N7       1.0000 0.54879  0.94902  0.40422  Biso   1.000  N 
  N8       1.0000 0.96226  0.44835  0.09375  Biso   1.000  N 
  N9       1.0000 0.54779  0.05338  0.09328  Biso   1.000  N 
  N10      1.0000 0.04878  0.44901  0.40427  Biso   1.000  N 
  N11      1.0000 0.04780  0.55338  0.09333  Biso   1.000  N 
  N12      1.0000 0.96227  0.44731  0.90451  Biso   1.000  N 
  N13      1.0000 0.46227  0.94731  0.90445  Biso   1.000  N 
  N14      1.0000 0.46225  0.94836  0.09369  Biso   1.000  N 
  N15      1.0000 0.54880  0.05098  0.90421  Biso   1.000  N 
  N16      1.0000 0.04780  0.44664  0.59334  Biso   1.000  N 
  Zn1      1.0000 0.50532  0.99886  0.74894  Biso   1.000  Zn
  Zn2      1.0000 0.50530  0.00115  0.24893  Biso   1.000  Zn
  Zn3      1.0000 0.00530  0.50115  0.24901  Biso   1.000  Zn
  Zn4      1.0000 0.00531  0.49886  0.74900  Biso   1.000  Zn
