data_image0
_cell_length_a       32.5458
_cell_length_b       13.004
_cell_length_c       7.20306
_cell_angle_alpha    89.9925
_cell_angle_beta     90.1091
_cell_angle_gamma    90.0003

_symmetry_space_group_name_H-M    "P 1"
_symmetry_int_tables_number       1

loop_
  _symmetry_equiv_pos_as_xyz
  'x, y, z'

loop_
  _atom_site_label
  _atom_site_occupancy
  _atom_site_fract_x
  _atom_site_fract_y
  _atom_site_fract_z
  _atom_site_thermal_displace_type
  _atom_site_B_iso_or_equiv
  _atom_site_type_symbol
  C1       1.0000 0.86132  0.32585  0.00121  Biso   1.000  C 
  C2       1.0000 0.14931  0.32510  0.50031  Biso   1.000  C 
  C3       1.0000 0.64931  0.82510  0.50030  Biso   1.000  C 
  C4       1.0000 0.58204  0.88635  0.34588  Biso   1.000  C 
  C5       1.0000 0.58111  0.11861  0.15166  Biso   1.000  C 
  C6       1.0000 0.42925  0.88457  0.15291  Biso   1.000  C 
  C7       1.0000 0.36132  0.17415  0.50117  Biso   1.000  C 
  C8       1.0000 0.33667  0.16200  0.66004  Biso   1.000  C 
  C9       1.0000 0.84285  0.71674  0.34203  Biso   1.000  C 
  C10      1.0000 0.80169  0.74549  0.34164  Biso   1.000  C 
  C11      1.0000 0.92925  0.38457  0.15292  Biso   1.000  C 
  C12      1.0000 0.08204  0.38635  0.34589  Biso   1.000  C 
  C13      1.0000 0.77708  0.26610  0.00071  Biso   1.000  C 
  C14      1.0000 0.84285  0.28325  0.84208  Biso   1.000  C 
  C15      1.0000 0.60658  0.85968  0.49927  Biso   1.000  C 
  C16      1.0000 0.14930  0.67490  0.00030  Biso   1.000  C 
  C17      1.0000 0.29561  0.19155  0.65997  Biso   1.000  C 
  C18      1.0000 0.23347  0.73524  0.00051  Biso   1.000  C 
  C19      1.0000 0.08204  0.61363  0.84588  Biso   1.000  C 
  C20      1.0000 0.60658  0.14032  0.99927  Biso   1.000  C 
  C21      1.0000 0.42899  0.88364  0.84699  Biso   1.000  C 
  C22      1.0000 0.58205  0.11363  0.84588  Biso   1.000  C 
  C23      1.0000 0.66778  0.21658  0.84068  Biso   1.000  C 
  C24      1.0000 0.10658  0.35968  0.49928  Biso   1.000  C 
  C25      1.0000 0.92899  0.61636  0.34697  Biso   1.000  C 
  C26      1.0000 0.20890  0.74566  0.84065  Biso   1.000  C 
  C27      1.0000 0.08112  0.38140  0.65168  Biso   1.000  C 
  C28      1.0000 0.64930  0.17489  0.00030  Biso   1.000  C 
  C29      1.0000 0.67391  0.16398  0.16002  Biso   1.000  C 
  C30      1.0000 0.71494  0.19384  0.16028  Biso   1.000  C 
  C31      1.0000 0.90409  0.36009  0.00043  Biso   1.000  C 
  C32      1.0000 0.17391  0.66398  0.16000  Biso   1.000  C 
  C33      1.0000 0.21494  0.69384  0.16026  Biso   1.000  C 
  C34      1.0000 0.27709  0.23389  0.50068  Biso   1.000  C 
  C35      1.0000 0.40409  0.13991  0.50039  Biso   1.000  C 
  C36      1.0000 0.17392  0.33601  0.66000  Biso   1.000  C 
  C37      1.0000 0.70890  0.24565  0.84066  Biso   1.000  C 
  C38      1.0000 0.42925  0.11544  0.65288  Biso   1.000  C 
  C39      1.0000 0.30169  0.75452  0.84167  Biso   1.000  C 
  C40      1.0000 0.30169  0.24549  0.34165  Biso   1.000  C 
  C41      1.0000 0.34285  0.21675  0.34203  Biso   1.000  C 
  C42      1.0000 0.86132  0.67415  0.50117  Biso   1.000  C 
  C43      1.0000 0.83667  0.66202  0.66004  Biso   1.000  C 
  C44      1.0000 0.79561  0.69156  0.65996  Biso   1.000  C 
  C45      1.0000 0.34285  0.78326  0.84206  Biso   1.000  C 
  C46      1.0000 0.77709  0.73390  0.50067  Biso   1.000  C 
  C47      1.0000 0.92899  0.38364  0.84700  Biso   1.000  C 
  C48      1.0000 0.29560  0.80844  0.15997  Biso   1.000  C 
  C49      1.0000 0.20890  0.25435  0.34066  Biso   1.000  C 
  C50      1.0000 0.40409  0.86009  0.00043  Biso   1.000  C 
  C51      1.0000 0.16778  0.71659  0.84068  Biso   1.000  C 
  C52      1.0000 0.73347  0.23523  0.00053  Biso   1.000  C 
  C53      1.0000 0.10658  0.64032  0.99927  Biso   1.000  C 
  C54      1.0000 0.90409  0.63991  0.50040  Biso   1.000  C 
  C55      1.0000 0.27708  0.76611  0.00069  Biso   1.000  C 
  C56      1.0000 0.33666  0.83799  0.16005  Biso   1.000  C 
  C57      1.0000 0.23347  0.26476  0.50051  Biso   1.000  C 
  C58      1.0000 0.08111  0.61861  0.15167  Biso   1.000  C 
  C59      1.0000 0.42899  0.11635  0.34696  Biso   1.000  C 
  C60      1.0000 0.58112  0.88140  0.65167  Biso   1.000  C 
  C61      1.0000 0.66777  0.78341  0.34069  Biso   1.000  C 
  C62      1.0000 0.70890  0.75435  0.34065  Biso   1.000  C 
  C63      1.0000 0.16778  0.28342  0.34070  Biso   1.000  C 
  C64      1.0000 0.83666  0.33799  0.16006  Biso   1.000  C 
  C65      1.0000 0.67392  0.83602  0.65998  Biso   1.000  C 
  C66      1.0000 0.71495  0.80617  0.66023  Biso   1.000  C 
  C67      1.0000 0.73347  0.76476  0.50049  Biso   1.000  C 
  C68      1.0000 0.92925  0.61543  0.65289  Biso   1.000  C 
  C69      1.0000 0.80170  0.25450  0.84169  Biso   1.000  C 
  C70      1.0000 0.21495  0.30615  0.66025  Biso   1.000  C 
  C71      1.0000 0.36132  0.82585  0.00120  Biso   1.000  C 
  C72      1.0000 0.79560  0.30844  0.15998  Biso   1.000  C 
  H1       1.0000 0.16106  0.37131  0.78447  Biso   1.000  H 
  H2       1.0000 0.08720  0.62730  0.29902  Biso   1.000  H 
  H3       1.0000 0.64947  0.22784  0.71526  Biso   1.000  H 
  H4       1.0000 0.72202  0.27955  0.71555  Biso   1.000  H 
  H5       1.0000 0.28857  0.71994  0.71698  Biso   1.000  H 
  H6       1.0000 0.92200  0.37923  0.69984  Biso   1.000  H 
  H7       1.0000 0.77713  0.32150  0.28400  Biso   1.000  H 
  H8       1.0000 0.92284  0.37876  0.30034  Biso   1.000  H 
  H9       1.0000 0.23340  0.68172  0.28496  Biso   1.000  H 
  H10      1.0000 0.34950  0.87397  0.28412  Biso   1.000  H 
  H11      1.0000 0.72202  0.72043  0.21556  Biso   1.000  H 
  H12      1.0000 0.92285  0.62124  0.80031  Biso   1.000  H 
  H13      1.0000 0.78857  0.21991  0.71701  Biso   1.000  H 
  H14      1.0000 0.64946  0.77215  0.21528  Biso   1.000  H 
  H15      1.0000 0.42286  0.12125  0.80030  Biso   1.000  H 
  H16      1.0000 0.58937  0.11524  0.69898  Biso   1.000  H 
  H17      1.0000 0.66105  0.12868  0.28449  Biso   1.000  H 
  H18      1.0000 0.23340  0.31826  0.78495  Biso   1.000  H 
  H19      1.0000 0.27713  0.82150  0.28398  Biso   1.000  H 
  H20      1.0000 0.16106  0.62867  0.28448  Biso   1.000  H 
  H21      1.0000 0.86116  0.27107  0.71728  Biso   1.000  H 
  H22      1.0000 0.36116  0.77110  0.71726  Biso   1.000  H 
  H23      1.0000 0.08937  0.61525  0.69899  Biso   1.000  H 
  H24      1.0000 0.08936  0.38472  0.19899  Biso   1.000  H 
  H25      1.0000 0.27713  0.17849  0.78400  Biso   1.000  H 
  H26      1.0000 0.42200  0.87923  0.69983  Biso   1.000  H 
  H27      1.0000 0.58719  0.12731  0.29902  Biso   1.000  H 
  H28      1.0000 0.42199  0.12075  0.19980  Biso   1.000  H 
  H29      1.0000 0.14947  0.27217  0.21528  Biso   1.000  H 
  H30      1.0000 0.86116  0.72891  0.21720  Biso   1.000  H 
  H31      1.0000 0.66106  0.87133  0.78444  Biso   1.000  H 
  H32      1.0000 0.73341  0.81829  0.78492  Biso   1.000  H 
  H33      1.0000 0.84951  0.62604  0.78412  Biso   1.000  H 
  H34      1.0000 0.73339  0.18173  0.28499  Biso   1.000  H 
  H35      1.0000 0.78857  0.78007  0.21694  Biso   1.000  H 
  H36      1.0000 0.58721  0.87273  0.79903  Biso   1.000  H 
  H37      1.0000 0.42285  0.87877  0.30034  Biso   1.000  H 
  H38      1.0000 0.08721  0.37272  0.79904  Biso   1.000  H 
  H39      1.0000 0.28856  0.28008  0.21696  Biso   1.000  H 
  H40      1.0000 0.14947  0.72785  0.71526  Biso   1.000  H 
  H41      1.0000 0.34951  0.12602  0.78411  Biso   1.000  H 
  H42      1.0000 0.58936  0.88472  0.19899  Biso   1.000  H 
  H43      1.0000 0.22202  0.22045  0.21556  Biso   1.000  H 
  H44      1.0000 0.22202  0.77957  0.71554  Biso   1.000  H 
  H45      1.0000 0.92200  0.62076  0.19980  Biso   1.000  H 
  H46      1.0000 0.36116  0.22892  0.21722  Biso   1.000  H 
  H47      1.0000 0.84950  0.37397  0.28412  Biso   1.000  H 
  H48      1.0000 0.77714  0.67852  0.78400  Biso   1.000  H 
  N1       1.0000 0.46559  0.07964  0.40454  Biso   1.000  N 
  N2       1.0000 0.54474  0.91894  0.59289  Biso   1.000  N 
  N3       1.0000 0.54536  0.92222  0.40348  Biso   1.000  N 
  N4       1.0000 0.96578  0.42079  0.09410  Biso   1.000  N 
  N5       1.0000 0.46579  0.07921  0.59406  Biso   1.000  N 
  N6       1.0000 0.96559  0.57964  0.40456  Biso   1.000  N 
  N7       1.0000 0.96578  0.57921  0.59407  Biso   1.000  N 
  N8       1.0000 0.04536  0.57777  0.90348  Biso   1.000  N 
  N9       1.0000 0.54536  0.07777  0.90347  Biso   1.000  N 
  N10      1.0000 0.96559  0.42035  0.90458  Biso   1.000  N 
  N11      1.0000 0.46578  0.92079  0.09408  Biso   1.000  N 
  N12      1.0000 0.04474  0.41893  0.59290  Biso   1.000  N 
  N13      1.0000 0.04536  0.42221  0.40349  Biso   1.000  N 
  N14      1.0000 0.54473  0.08108  0.09287  Biso   1.000  N 
  N15      1.0000 0.04473  0.58107  0.09288  Biso   1.000  N 
  N16      1.0000 0.46559  0.92035  0.90457  Biso   1.000  N 
  Zn1      1.0000 0.00537  0.50123  0.24878  Biso   1.000  Zn
  Zn2      1.0000 0.50537  0.99877  0.74875  Biso   1.000  Zn
  Zn3      1.0000 0.50537  0.00123  0.24874  Biso   1.000  Zn
  Zn4      1.0000 0.00537  0.49876  0.74877  Biso   1.000  Zn
