data_image0
_cell_length_a       33.3623
_cell_length_b       9.60406
_cell_length_c       7.28885
_cell_angle_alpha    89.9859
_cell_angle_beta     90.0374
_cell_angle_gamma    90

_symmetry_space_group_name_H-M    "P 1"
_symmetry_int_tables_number       1

loop_
  _symmetry_equiv_pos_as_xyz
  'x, y, z'

loop_
  _atom_site_label
  _atom_site_occupancy
  _atom_site_fract_x
  _atom_site_fract_y
  _atom_site_fract_z
  _atom_site_thermal_displace_type
  _atom_site_B_iso_or_equiv
  _atom_site_type_symbol
  C1       1.0000 0.86198  0.29572  0.00319  Biso   1.000  C 
  C2       1.0000 0.71038  0.27086  0.84407  Biso   1.000  C 
  C3       1.0000 0.73333  0.24169  0.00146  Biso   1.000  C 
  C4       1.0000 0.16896  0.75356  0.84356  Biso   1.000  C 
  C5       1.0000 0.40500  0.82523  0.00123  Biso   1.000  C 
  C6       1.0000 0.21037  0.22910  0.34415  Biso   1.000  C 
  C7       1.0000 0.92998  0.34841  0.84909  Biso   1.000  C 
  C8       1.0000 0.10564  0.67508  0.99701  Biso   1.000  C 
  C9       1.0000 0.77727  0.74102  0.50203  Biso   1.000  C 
  C10      1.0000 0.79736  0.69041  0.65817  Biso   1.000  C 
  C11      1.0000 0.83868  0.67176  0.65842  Biso   1.000  C 
  C12      1.0000 0.86198  0.70425  0.50313  Biso   1.000  C 
  C13      1.0000 0.34197  0.25686  0.34787  Biso   1.000  C 
  C14      1.0000 0.30055  0.27406  0.34712  Biso   1.000  C 
  C15      1.0000 0.30055  0.72595  0.84712  Biso   1.000  C 
  C16      1.0000 0.34197  0.74316  0.84790  Biso   1.000  C 
  C17      1.0000 0.90500  0.67479  0.50124  Biso   1.000  C 
  C18      1.0000 0.29736  0.80961  0.15813  Biso   1.000  C 
  C19      1.0000 0.33868  0.82827  0.15839  Biso   1.000  C 
  C20      1.0000 0.36198  0.79577  0.00312  Biso   1.000  C 
  C21      1.0000 0.79736  0.30953  0.15819  Biso   1.000  C 
  C22      1.0000 0.80056  0.22588  0.84716  Biso   1.000  C 
  C23      1.0000 0.93012  0.64504  0.65108  Biso   1.000  C 
  C24      1.0000 0.73333  0.75828  0.50144  Biso   1.000  C 
  C25      1.0000 0.71293  0.80507  0.65869  Biso   1.000  C 
  C26      1.0000 0.67161  0.82382  0.65778  Biso   1.000  C 
  C27      1.0000 0.57960  0.84368  0.64637  Biso   1.000  C 
  C28      1.0000 0.16895  0.24647  0.34366  Biso   1.000  C 
  C29      1.0000 0.71037  0.72911  0.34408  Biso   1.000  C 
  C30      1.0000 0.66896  0.74649  0.34357  Biso   1.000  C 
  C31      1.0000 0.42997  0.15154  0.34899  Biso   1.000  C 
  C32      1.0000 0.07959  0.65638  0.14636  Biso   1.000  C 
  C33      1.0000 0.27727  0.75900  0.00201  Biso   1.000  C 
  C34      1.0000 0.23333  0.25826  0.50150  Biso   1.000  C 
  C35      1.0000 0.43013  0.14509  0.65103  Biso   1.000  C 
  C36      1.0000 0.07959  0.34365  0.64642  Biso   1.000  C 
  C37      1.0000 0.83868  0.32821  0.15845  Biso   1.000  C 
  C38      1.0000 0.40500  0.17479  0.50121  Biso   1.000  C 
  C39      1.0000 0.60564  0.82496  0.49701  Biso   1.000  C 
  C40      1.0000 0.84198  0.24310  0.84796  Biso   1.000  C 
  C41      1.0000 0.77728  0.25893  0.00207  Biso   1.000  C 
  C42      1.0000 0.08167  0.35955  0.34508  Biso   1.000  C 
  C43      1.0000 0.93011  0.35500  0.15113  Biso   1.000  C 
  C44      1.0000 0.80055  0.77408  0.34710  Biso   1.000  C 
  C45      1.0000 0.14865  0.70478  0.00003  Biso   1.000  C 
  C46      1.0000 0.84197  0.75686  0.34788  Biso   1.000  C 
  C47      1.0000 0.36198  0.20425  0.50311  Biso   1.000  C 
  C48      1.0000 0.58166  0.85953  0.34502  Biso   1.000  C 
  C49      1.0000 0.64865  0.79526  0.50002  Biso   1.000  C 
  C50      1.0000 0.14865  0.29525  0.50010  Biso   1.000  C 
  C51      1.0000 0.17161  0.32379  0.65787  Biso   1.000  C 
  C52      1.0000 0.21294  0.30505  0.65875  Biso   1.000  C 
  C53      1.0000 0.33869  0.17175  0.65842  Biso   1.000  C 
  C54      1.0000 0.29737  0.19040  0.65819  Biso   1.000  C 
  C55      1.0000 0.57959  0.15634  0.14634  Biso   1.000  C 
  C56      1.0000 0.08167  0.64046  0.84502  Biso   1.000  C 
  C57      1.0000 0.27727  0.24100  0.50206  Biso   1.000  C 
  C58      1.0000 0.43011  0.85496  0.15106  Biso   1.000  C 
  C59      1.0000 0.23333  0.74175  0.00143  Biso   1.000  C 
  C60      1.0000 0.21293  0.69495  0.15871  Biso   1.000  C 
  C61      1.0000 0.71293  0.19488  0.15872  Biso   1.000  C 
  C62      1.0000 0.67161  0.17615  0.15780  Biso   1.000  C 
  C63      1.0000 0.64865  0.20473  0.00001  Biso   1.000  C 
  C64      1.0000 0.17160  0.67622  0.15782  Biso   1.000  C 
  C65      1.0000 0.21037  0.77093  0.84405  Biso   1.000  C 
  C66      1.0000 0.92998  0.65158  0.34903  Biso   1.000  C 
  C67      1.0000 0.10564  0.32495  0.49707  Biso   1.000  C 
  C68      1.0000 0.66897  0.25350  0.84355  Biso   1.000  C 
  C69      1.0000 0.58168  0.14045  0.84500  Biso   1.000  C 
  C70      1.0000 0.90500  0.32519  0.00130  Biso   1.000  C 
  C71      1.0000 0.42998  0.84846  0.84902  Biso   1.000  C 
  C72      1.0000 0.60564  0.17503  0.99699  Biso   1.000  C 
  H1       1.0000 0.58515  0.17086  0.29184  Biso   1.000  H 
  H2       1.0000 0.78597  0.81677  0.22541  Biso   1.000  H 
  H3       1.0000 0.42303  0.15833  0.20374  Biso   1.000  H 
  H4       1.0000 0.72998  0.83216  0.78143  Biso   1.000  H 
  H5       1.0000 0.15199  0.22049  0.22024  Biso   1.000  H 
  H6       1.0000 0.85295  0.62654  0.77930  Biso   1.000  H 
  H7       1.0000 0.65705  0.86629  0.77957  Biso   1.000  H 
  H8       1.0000 0.28010  0.16040  0.77901  Biso   1.000  H 
  H9       1.0000 0.85913  0.78582  0.22628  Biso   1.000  H 
  H10      1.0000 0.58516  0.82918  0.79188  Biso   1.000  H 
  H11      1.0000 0.58960  0.86327  0.20071  Biso   1.000  H 
  H12      1.0000 0.08515  0.32912  0.79193  Biso   1.000  H 
  H13      1.0000 0.22519  0.81081  0.72139  Biso   1.000  H 
  H14      1.0000 0.78009  0.66041  0.77899  Biso   1.000  H 
  H15      1.0000 0.85294  0.37343  0.27931  Biso   1.000  H 
  H16      1.0000 0.35912  0.28582  0.22626  Biso   1.000  H 
  H17      1.0000 0.42305  0.84164  0.70377  Biso   1.000  H 
  H18      1.0000 0.35296  0.12654  0.77930  Biso   1.000  H 
  H19      1.0000 0.15200  0.77956  0.72013  Biso   1.000  H 
  H20      1.0000 0.28596  0.31675  0.22544  Biso   1.000  H 
  H21      1.0000 0.92304  0.65841  0.20379  Biso   1.000  H 
  H22      1.0000 0.42361  0.85132  0.29685  Biso   1.000  H 
  H23      1.0000 0.72998  0.16779  0.28148  Biso   1.000  H 
  H24      1.0000 0.22518  0.18923  0.22149  Biso   1.000  H 
  H25      1.0000 0.35913  0.71421  0.72631  Biso   1.000  H 
  H26      1.0000 0.15706  0.36626  0.77966  Biso   1.000  H 
  H27      1.0000 0.65705  0.13368  0.27961  Biso   1.000  H 
  H28      1.0000 0.78008  0.33954  0.27897  Biso   1.000  H 
  H29      1.0000 0.92305  0.34156  0.70385  Biso   1.000  H 
  H30      1.0000 0.65201  0.27950  0.72011  Biso   1.000  H 
  H31      1.0000 0.72521  0.31076  0.72142  Biso   1.000  H 
  H32      1.0000 0.08514  0.67093  0.29186  Biso   1.000  H 
  H33      1.0000 0.22998  0.66786  0.28146  Biso   1.000  H 
  H34      1.0000 0.08961  0.36331  0.20077  Biso   1.000  H 
  H35      1.0000 0.28597  0.68327  0.72545  Biso   1.000  H 
  H36      1.0000 0.35294  0.87348  0.27924  Biso   1.000  H 
  H37      1.0000 0.92361  0.35137  0.29691  Biso   1.000  H 
  H38      1.0000 0.92362  0.64867  0.79686  Biso   1.000  H 
  H39      1.0000 0.58962  0.13667  0.70070  Biso   1.000  H 
  H40      1.0000 0.22998  0.33214  0.78148  Biso   1.000  H 
  H41      1.0000 0.78598  0.18318  0.72550  Biso   1.000  H 
  H42      1.0000 0.65200  0.72050  0.22015  Biso   1.000  H 
  H43      1.0000 0.08962  0.63668  0.70073  Biso   1.000  H 
  H44      1.0000 0.28009  0.83961  0.27892  Biso   1.000  H 
  H45      1.0000 0.15705  0.63375  0.27963  Biso   1.000  H 
  H46      1.0000 0.85914  0.21416  0.72639  Biso   1.000  H 
  H47      1.0000 0.72519  0.68923  0.22143  Biso   1.000  H 
  H48      1.0000 0.42363  0.14876  0.79682  Biso   1.000  H 
  N1       1.0000 0.46657  0.89571  0.09211  Biso   1.000  N 
  N2       1.0000 0.54484  0.10098  0.90066  Biso   1.000  N 
  N3       1.0000 0.96649  0.39188  0.90462  Biso   1.000  N 
  N4       1.0000 0.46648  0.89190  0.90454  Biso   1.000  N 
  N5       1.0000 0.04348  0.61128  0.08774  Biso   1.000  N 
  N6       1.0000 0.54348  0.11125  0.08771  Biso   1.000  N 
  N7       1.0000 0.04349  0.38875  0.58779  Biso   1.000  N 
  N8       1.0000 0.04484  0.39903  0.40073  Biso   1.000  N 
  N9       1.0000 0.54483  0.89900  0.40068  Biso   1.000  N 
  N10      1.0000 0.96648  0.60813  0.40457  Biso   1.000  N 
  N11      1.0000 0.96657  0.39574  0.09218  Biso   1.000  N 
  N12      1.0000 0.54349  0.88877  0.58774  Biso   1.000  N 
  N13      1.0000 0.46648  0.10810  0.40451  Biso   1.000  N 
  N14      1.0000 0.04484  0.60098  0.90069  Biso   1.000  N 
  N15      1.0000 0.96657  0.60429  0.59214  Biso   1.000  N 
  N16      1.0000 0.46658  0.10433  0.59208  Biso   1.000  N 
  Zn1      1.0000 0.00535  0.50410  0.24628  Biso   1.000  Zn
  Zn2      1.0000 0.50536  0.99595  0.74621  Biso   1.000  Zn
  Zn3      1.0000 0.50535  0.00405  0.24621  Biso   1.000  Zn
  Zn4      1.0000 0.00536  0.49592  0.74629  Biso   1.000  Zn
