data_image0
_cell_length_a       33.1538
_cell_length_b       10.7141
_cell_length_c       7.25247
_cell_angle_alpha    89.9817
_cell_angle_beta     90.0838
_cell_angle_gamma    90.0007

_symmetry_space_group_name_H-M    "P 1"
_symmetry_int_tables_number       1

loop_
  _symmetry_equiv_pos_as_xyz
  'x, y, z'

loop_
  _atom_site_label
  _atom_site_occupancy
  _atom_site_fract_x
  _atom_site_fract_y
  _atom_site_fract_z
  _atom_site_thermal_displace_type
  _atom_site_B_iso_or_equiv
  _atom_site_type_symbol
  C1       1.0000 0.86187  0.30775  0.00262  Biso   1.000  C 
  C2       1.0000 0.17231  0.32885  0.65875  Biso   1.000  C 
  C3       1.0000 0.14875  0.30716  0.50028  Biso   1.000  C 
  C4       1.0000 0.64875  0.80714  0.50023  Biso   1.000  C 
  C5       1.0000 0.58177  0.87054  0.34515  Biso   1.000  C 
  C6       1.0000 0.57991  0.14190  0.14820  Biso   1.000  C 
  C7       1.0000 0.36187  0.19224  0.50257  Biso   1.000  C 
  C8       1.0000 0.33809  0.16806  0.65932  Biso   1.000  C 
  C9       1.0000 0.84239  0.74088  0.34570  Biso   1.000  C 
  C10      1.0000 0.80103  0.76285  0.34487  Biso   1.000  C 
  C11      1.0000 0.92992  0.36673  0.15202  Biso   1.000  C 
  C12      1.0000 0.08177  0.37058  0.34518  Biso   1.000  C 
  C13      1.0000 0.77725  0.26154  0.00139  Biso   1.000  C 
  C14      1.0000 0.84240  0.25912  0.84578  Biso   1.000  C 
  C15      1.0000 0.60583  0.83874  0.49786  Biso   1.000  C 
  C16      1.0000 0.14875  0.69287  0.00018  Biso   1.000  C 
  C17      1.0000 0.29683  0.19125  0.65895  Biso   1.000  C 
  C18      1.0000 0.42993  0.86672  0.15198  Biso   1.000  C 
  C19      1.0000 0.08177  0.62943  0.84511  Biso   1.000  C 
  C20      1.0000 0.42975  0.86228  0.84833  Biso   1.000  C 
  C21      1.0000 0.60583  0.16124  0.99779  Biso   1.000  C 
  C22      1.0000 0.58178  0.12941  0.84509  Biso   1.000  C 
  C23      1.0000 0.66843  0.23906  0.84254  Biso   1.000  C 
  C24      1.0000 0.10583  0.33877  0.49789  Biso   1.000  C 
  C25      1.0000 0.92974  0.63771  0.34828  Biso   1.000  C 
  C26      1.0000 0.20978  0.76107  0.84263  Biso   1.000  C 
  C27      1.0000 0.90481  0.33912  0.00116  Biso   1.000  C 
  C28      1.0000 0.64875  0.19283  0.00019  Biso   1.000  C 
  C29      1.0000 0.67230  0.17112  0.15871  Biso   1.000  C 
  C30      1.0000 0.71357  0.19431  0.15921  Biso   1.000  C 
  C31      1.0000 0.17230  0.67115  0.15869  Biso   1.000  C 
  C32      1.0000 0.21357  0.69435  0.15919  Biso   1.000  C 
  C33      1.0000 0.23335  0.73908  0.00085  Biso   1.000  C 
  C34      1.0000 0.27725  0.23842  0.50139  Biso   1.000  C 
  C35      1.0000 0.40481  0.16088  0.50109  Biso   1.000  C 
  C36      1.0000 0.21358  0.30564  0.65922  Biso   1.000  C 
  C37      1.0000 0.07992  0.35812  0.64831  Biso   1.000  C 
  C38      1.0000 0.42994  0.13332  0.65193  Biso   1.000  C 
  C39      1.0000 0.30103  0.73718  0.84492  Biso   1.000  C 
  C40      1.0000 0.30102  0.26285  0.34489  Biso   1.000  C 
  C41      1.0000 0.34239  0.24088  0.34571  Biso   1.000  C 
  C42      1.0000 0.86187  0.69224  0.50256  Biso   1.000  C 
  C43      1.0000 0.83809  0.66806  0.65931  Biso   1.000  C 
  C44      1.0000 0.79683  0.69125  0.65893  Biso   1.000  C 
  C45      1.0000 0.34239  0.75915  0.84576  Biso   1.000  C 
  C46      1.0000 0.77725  0.73843  0.50136  Biso   1.000  C 
  C47      1.0000 0.92975  0.36225  0.84836  Biso   1.000  C 
  C48      1.0000 0.20978  0.23898  0.34272  Biso   1.000  C 
  C49      1.0000 0.40481  0.83914  0.00113  Biso   1.000  C 
  C50      1.0000 0.16842  0.73911  0.84253  Biso   1.000  C 
  C51      1.0000 0.73335  0.23902  0.00088  Biso   1.000  C 
  C52      1.0000 0.70979  0.26102  0.84266  Biso   1.000  C 
  C53      1.0000 0.10582  0.66127  0.99780  Biso   1.000  C 
  C54      1.0000 0.90481  0.66088  0.50109  Biso   1.000  C 
  C55      1.0000 0.29682  0.80875  0.15891  Biso   1.000  C 
  C56      1.0000 0.33808  0.83194  0.15930  Biso   1.000  C 
  C57      1.0000 0.23335  0.26094  0.50089  Biso   1.000  C 
  C58      1.0000 0.27725  0.76160  0.00137  Biso   1.000  C 
  C59      1.0000 0.07991  0.64192  0.14821  Biso   1.000  C 
  C60      1.0000 0.42973  0.13769  0.34827  Biso   1.000  C 
  C61      1.0000 0.66842  0.76093  0.34260  Biso   1.000  C 
  C62      1.0000 0.70978  0.73897  0.34268  Biso   1.000  C 
  C63      1.0000 0.16842  0.26094  0.34265  Biso   1.000  C 
  C64      1.0000 0.57992  0.85812  0.64828  Biso   1.000  C 
  C65      1.0000 0.67231  0.82884  0.65871  Biso   1.000  C 
  C66      1.0000 0.71357  0.80564  0.65918  Biso   1.000  C 
  C67      1.0000 0.73335  0.76094  0.50087  Biso   1.000  C 
  C68      1.0000 0.92993  0.63330  0.65195  Biso   1.000  C 
  C69      1.0000 0.80103  0.23714  0.84494  Biso   1.000  C 
  C70      1.0000 0.83808  0.33189  0.15934  Biso   1.000  C 
  C71      1.0000 0.79683  0.30870  0.15895  Biso   1.000  C 
  C72      1.0000 0.36187  0.80778  0.00260  Biso   1.000  C 
  H1       1.0000 0.92347  0.36217  0.29853  Biso   1.000  H 
  H2       1.0000 0.77913  0.33167  0.28104  Biso   1.000  H 
  H3       1.0000 0.92281  0.35614  0.70235  Biso   1.000  H 
  H4       1.0000 0.65095  0.25946  0.71854  Biso   1.000  H 
  H5       1.0000 0.72402  0.29878  0.71908  Biso   1.000  H 
  H6       1.0000 0.08555  0.65472  0.29447  Biso   1.000  H 
  H7       1.0000 0.23112  0.67315  0.28267  Biso   1.000  H 
  H8       1.0000 0.08960  0.37266  0.19993  Biso   1.000  H 
  H9       1.0000 0.28698  0.69763  0.72197  Biso   1.000  H 
  H10      1.0000 0.35185  0.87340  0.28156  Biso   1.000  H 
  H11      1.0000 0.58961  0.12733  0.69985  Biso   1.000  H 
  H12      1.0000 0.92350  0.63788  0.79846  Biso   1.000  H 
  H13      1.0000 0.72400  0.70121  0.21911  Biso   1.000  H 
  H14      1.0000 0.85999  0.23691  0.72304  Biso   1.000  H 
  H15      1.0000 0.15833  0.63136  0.28156  Biso   1.000  H 
  H16      1.0000 0.27912  0.83174  0.28101  Biso   1.000  H 
  H17      1.0000 0.35999  0.73693  0.72303  Biso   1.000  H 
  H18      1.0000 0.42351  0.13793  0.79844  Biso   1.000  H 
  H19      1.0000 0.65093  0.74053  0.21863  Biso   1.000  H 
  H20      1.0000 0.78698  0.19758  0.72201  Biso   1.000  H 
  H21      1.0000 0.23113  0.32681  0.78267  Biso   1.000  H 
  H22      1.0000 0.08960  0.62737  0.69987  Biso   1.000  H 
  H23      1.0000 0.15835  0.36861  0.78160  Biso   1.000  H 
  H24      1.0000 0.65833  0.13133  0.28157  Biso   1.000  H 
  H25      1.0000 0.22400  0.20122  0.21915  Biso   1.000  H 
  H26      1.0000 0.42348  0.86215  0.29849  Biso   1.000  H 
  H27      1.0000 0.27914  0.16826  0.78106  Biso   1.000  H 
  H28      1.0000 0.85186  0.62658  0.78159  Biso   1.000  H 
  H29      1.0000 0.73113  0.82682  0.78264  Biso   1.000  H 
  H30      1.0000 0.15093  0.24055  0.21866  Biso   1.000  H 
  H31      1.0000 0.85998  0.76310  0.22293  Biso   1.000  H 
  H32      1.0000 0.42278  0.14377  0.20226  Biso   1.000  H 
  H33      1.0000 0.78697  0.80243  0.22192  Biso   1.000  H 
  H34      1.0000 0.58555  0.15469  0.29446  Biso   1.000  H 
  H35      1.0000 0.65834  0.86860  0.78157  Biso   1.000  H 
  H36      1.0000 0.58557  0.84535  0.79454  Biso   1.000  H 
  H37      1.0000 0.73112  0.17313  0.28271  Biso   1.000  H 
  H38      1.0000 0.08557  0.34534  0.79456  Biso   1.000  H 
  H39      1.0000 0.22401  0.79883  0.71904  Biso   1.000  H 
  H40      1.0000 0.77914  0.66826  0.78104  Biso   1.000  H 
  H41      1.0000 0.85185  0.37335  0.28161  Biso   1.000  H 
  H42      1.0000 0.35998  0.26311  0.22294  Biso   1.000  H 
  H43      1.0000 0.42280  0.85618  0.70233  Biso   1.000  H 
  H44      1.0000 0.58959  0.87260  0.19990  Biso   1.000  H 
  H45      1.0000 0.35186  0.12659  0.78160  Biso   1.000  H 
  H46      1.0000 0.15094  0.75951  0.71852  Biso   1.000  H 
  H47      1.0000 0.28697  0.30243  0.22195  Biso   1.000  H 
  H48      1.0000 0.92279  0.64380  0.20228  Biso   1.000  H 
  N1       1.0000 0.96638  0.59452  0.59290  Biso   1.000  N 
  N2       1.0000 0.04500  0.59166  0.90138  Biso   1.000  N 
  N3       1.0000 0.46625  0.09706  0.40445  Biso   1.000  N 
  N4       1.0000 0.54378  0.90028  0.58941  Biso   1.000  N 
  N5       1.0000 0.54499  0.90833  0.40141  Biso   1.000  N 
  N6       1.0000 0.96637  0.40551  0.09297  Biso   1.000  N 
  N7       1.0000 0.96625  0.59708  0.40448  Biso   1.000  N 
  N8       1.0000 0.46638  0.09453  0.59287  Biso   1.000  N 
  N9       1.0000 0.04500  0.40835  0.40143  Biso   1.000  N 
  N10      1.0000 0.46638  0.90549  0.09293  Biso   1.000  N 
  N11      1.0000 0.04378  0.40029  0.58943  Biso   1.000  N 
  N12      1.0000 0.54378  0.09973  0.08934  Biso   1.000  N 
  N13      1.0000 0.04377  0.59974  0.08937  Biso   1.000  N 
  N14      1.0000 0.46626  0.90292  0.90451  Biso   1.000  N 
  N15      1.0000 0.96626  0.40291  0.90455  Biso   1.000  N 
  N16      1.0000 0.54500  0.09165  0.90135  Biso   1.000  N 
  Zn1      1.0000 0.50537  0.99699  0.74697  Biso   1.000  Zn
  Zn2      1.0000 0.50536  0.00302  0.24698  Biso   1.000  Zn
  Zn3      1.0000 0.00537  0.50302  0.24699  Biso   1.000  Zn
  Zn4      1.0000 0.00538  0.49698  0.74700  Biso   1.000  Zn
