data_image0
_cell_length_a       33.6403
_cell_length_b       6.73559
_cell_length_c       7.27535
_cell_angle_alpha    89.9936
_cell_angle_beta     89.8264
_cell_angle_gamma    89.9996

_symmetry_space_group_name_H-M    "P 1"
_symmetry_int_tables_number       1

loop_
  _symmetry_equiv_pos_as_xyz
  'x, y, z'

loop_
  _atom_site_label
  _atom_site_occupancy
  _atom_site_fract_x
  _atom_site_fract_y
  _atom_site_fract_z
  _atom_site_thermal_displace_type
  _atom_site_B_iso_or_equiv
  _atom_site_type_symbol
  C1       1.0000 0.86188  0.24215  0.00562  Biso   1.000  C 
  C2       1.0000 0.90523  0.26158  0.00261  Biso   1.000  C 
  C3       1.0000 0.07878  0.27614  0.64319  Biso   1.000  C 
  C4       1.0000 0.71221  0.30745  0.84387  Biso   1.000  C 
  C5       1.0000 0.73336  0.25267  0.00252  Biso   1.000  C 
  C6       1.0000 0.17086  0.81164  0.84257  Biso   1.000  C 
  C7       1.0000 0.93017  0.28817  0.84907  Biso   1.000  C 
  C8       1.0000 0.10541  0.73875  0.99458  Biso   1.000  C 
  C9       1.0000 0.77723  0.75321  0.50381  Biso   1.000  C 
  C10      1.0000 0.79874  0.69439  0.66023  Biso   1.000  C 
  C11      1.0000 0.84005  0.69541  0.66067  Biso   1.000  C 
  C12      1.0000 0.86189  0.75787  0.50557  Biso   1.000  C 
  C13      1.0000 0.34039  0.32026  0.35033  Biso   1.000  C 
  C14      1.0000 0.29902  0.31660  0.34917  Biso   1.000  C 
  C15      1.0000 0.29902  0.68343  0.84920  Biso   1.000  C 
  C16      1.0000 0.34038  0.67976  0.85037  Biso   1.000  C 
  C17      1.0000 0.90523  0.73842  0.50255  Biso   1.000  C 
  C18      1.0000 0.40523  0.76158  0.00253  Biso   1.000  C 
  C19      1.0000 0.34004  0.80464  0.16063  Biso   1.000  C 
  C20      1.0000 0.36188  0.74215  0.00555  Biso   1.000  C 
  C21      1.0000 0.79874  0.30566  0.16024  Biso   1.000  C 
  C22      1.0000 0.79902  0.18342  0.84923  Biso   1.000  C 
  C23      1.0000 0.93074  0.70329  0.65175  Biso   1.000  C 
  C24      1.0000 0.73336  0.74734  0.50250  Biso   1.000  C 
  C25      1.0000 0.71123  0.79697  0.66039  Biso   1.000  C 
  C26      1.0000 0.66992  0.79533  0.65854  Biso   1.000  C 
  C27      1.0000 0.07877  0.72386  0.14315  Biso   1.000  C 
  C28      1.0000 0.17086  0.18840  0.34260  Biso   1.000  C 
  C29      1.0000 0.71221  0.69255  0.34387  Biso   1.000  C 
  C30      1.0000 0.67087  0.68837  0.34260  Biso   1.000  C 
  C31      1.0000 0.27722  0.74684  0.00381  Biso   1.000  C 
  C32      1.0000 0.29874  0.80567  0.16020  Biso   1.000  C 
  C33      1.0000 0.21221  0.19257  0.34387  Biso   1.000  C 
  C34      1.0000 0.23336  0.24735  0.50251  Biso   1.000  C 
  C35      1.0000 0.43075  0.20337  0.65169  Biso   1.000  C 
  C36      1.0000 0.16992  0.70471  0.15854  Biso   1.000  C 
  C37      1.0000 0.43017  0.21169  0.34895  Biso   1.000  C 
  C38      1.0000 0.40524  0.23842  0.50250  Biso   1.000  C 
  C39      1.0000 0.60541  0.76125  0.49461  Biso   1.000  C 
  C40      1.0000 0.84039  0.17975  0.85042  Biso   1.000  C 
  C41      1.0000 0.77723  0.24682  0.00383  Biso   1.000  C 
  C42      1.0000 0.08168  0.30900  0.34203  Biso   1.000  C 
  C43      1.0000 0.93074  0.29670  0.15181  Biso   1.000  C 
  C44      1.0000 0.79902  0.81659  0.34918  Biso   1.000  C 
  C45      1.0000 0.14874  0.75845  0.99940  Biso   1.000  C 
  C46      1.0000 0.84039  0.82026  0.35036  Biso   1.000  C 
  C47      1.0000 0.36189  0.25788  0.50553  Biso   1.000  C 
  C48      1.0000 0.14875  0.24157  0.49942  Biso   1.000  C 
  C49      1.0000 0.16992  0.29533  0.65855  Biso   1.000  C 
  C50      1.0000 0.21123  0.29697  0.66039  Biso   1.000  C 
  C51      1.0000 0.84004  0.30462  0.16070  Biso   1.000  C 
  C52      1.0000 0.57878  0.77618  0.64319  Biso   1.000  C 
  C53      1.0000 0.34005  0.19543  0.66064  Biso   1.000  C 
  C54      1.0000 0.29875  0.19441  0.66021  Biso   1.000  C 
  C55      1.0000 0.64875  0.74156  0.49942  Biso   1.000  C 
  C56      1.0000 0.08168  0.69099  0.84199  Biso   1.000  C 
  C57      1.0000 0.27723  0.25322  0.50380  Biso   1.000  C 
  C58      1.0000 0.58168  0.80891  0.34201  Biso   1.000  C 
  C59      1.0000 0.57877  0.22377  0.14316  Biso   1.000  C 
  C60      1.0000 0.43074  0.79661  0.15173  Biso   1.000  C 
  C61      1.0000 0.71122  0.20306  0.16041  Biso   1.000  C 
  C62      1.0000 0.66992  0.20468  0.15855  Biso   1.000  C 
  C63      1.0000 0.64874  0.25843  0.99941  Biso   1.000  C 
  C64      1.0000 0.23336  0.75269  0.00251  Biso   1.000  C 
  C65      1.0000 0.21221  0.80747  0.84386  Biso   1.000  C 
  C66      1.0000 0.93018  0.71181  0.34901  Biso   1.000  C 
  C67      1.0000 0.10541  0.26126  0.49461  Biso   1.000  C 
  C68      1.0000 0.67086  0.31161  0.84258  Biso   1.000  C 
  C69      1.0000 0.58168  0.19102  0.84199  Biso   1.000  C 
  C70      1.0000 0.21122  0.70308  0.16040  Biso   1.000  C 
  C71      1.0000 0.43017  0.78827  0.84898  Biso   1.000  C 
  C72      1.0000 0.60541  0.23872  0.99459  Biso   1.000  C 
  H1       1.0000 0.22840  0.14898  0.22024  Biso   1.000  H 
  H2       1.0000 0.85614  0.87277  0.22844  Biso   1.000  H 
  H3       1.0000 0.78337  0.86712  0.22675  Biso   1.000  H 
  H4       1.0000 0.85557  0.64001  0.78164  Biso   1.000  H 
  H5       1.0000 0.42301  0.22059  0.20383  Biso   1.000  H 
  H6       1.0000 0.65383  0.84380  0.78092  Biso   1.000  H 
  H7       1.0000 0.15557  0.14238  0.21774  Biso   1.000  H 
  H8       1.0000 0.42300  0.77938  0.70386  Biso   1.000  H 
  H9       1.0000 0.72657  0.84457  0.78466  Biso   1.000  H 
  H10      1.0000 0.58398  0.75126  0.78856  Biso   1.000  H 
  H11      1.0000 0.15556  0.85764  0.71769  Biso   1.000  H 
  H12      1.0000 0.08397  0.25115  0.78856  Biso   1.000  H 
  H13      1.0000 0.35613  0.37277  0.22840  Biso   1.000  H 
  H14      1.0000 0.35558  0.14003  0.78161  Biso   1.000  H 
  H15      1.0000 0.22839  0.85106  0.72021  Biso   1.000  H 
  H16      1.0000 0.78293  0.64024  0.78137  Biso   1.000  H 
  H17      1.0000 0.72656  0.15546  0.28469  Biso   1.000  H 
  H18      1.0000 0.28336  0.36713  0.22675  Biso   1.000  H 
  H19      1.0000 0.92302  0.72080  0.20389  Biso   1.000  H 
  H20      1.0000 0.59006  0.81950  0.19819  Biso   1.000  H 
  H21      1.0000 0.85557  0.36002  0.28165  Biso   1.000  H 
  H22      1.0000 0.58397  0.24871  0.28853  Biso   1.000  H 
  H23      1.0000 0.28294  0.14026  0.78136  Biso   1.000  H 
  H24      1.0000 0.42440  0.79123  0.29795  Biso   1.000  H 
  H25      1.0000 0.15383  0.34379  0.78092  Biso   1.000  H 
  H26      1.0000 0.09006  0.31965  0.19822  Biso   1.000  H 
  H27      1.0000 0.09006  0.68034  0.69819  Biso   1.000  H 
  H28      1.0000 0.28336  0.63289  0.72679  Biso   1.000  H 
  H29      1.0000 0.78293  0.35980  0.28136  Biso   1.000  H 
  H30      1.0000 0.08396  0.74885  0.28851  Biso   1.000  H 
  H31      1.0000 0.92301  0.27920  0.70394  Biso   1.000  H 
  H32      1.0000 0.22656  0.65549  0.28468  Biso   1.000  H 
  H33      1.0000 0.72840  0.35105  0.72022  Biso   1.000  H 
  H34      1.0000 0.35613  0.62723  0.72846  Biso   1.000  H 
  H35      1.0000 0.65556  0.35763  0.71771  Biso   1.000  H 
  H36      1.0000 0.35557  0.86004  0.28159  Biso   1.000  H 
  H37      1.0000 0.65383  0.15621  0.28094  Biso   1.000  H 
  H38      1.0000 0.92440  0.70857  0.79797  Biso   1.000  H 
  H39      1.0000 0.65556  0.64235  0.21775  Biso   1.000  H 
  H40      1.0000 0.15382  0.65625  0.28093  Biso   1.000  H 
  H41      1.0000 0.59006  0.18042  0.69818  Biso   1.000  H 
  H42      1.0000 0.22657  0.34456  0.78466  Biso   1.000  H 
  H43      1.0000 0.92440  0.29141  0.29802  Biso   1.000  H 
  H44      1.0000 0.85614  0.12724  0.72852  Biso   1.000  H 
  H45      1.0000 0.72840  0.64895  0.22023  Biso   1.000  H 
  H46      1.0000 0.42441  0.20877  0.79792  Biso   1.000  H 
  H47      1.0000 0.28293  0.85983  0.28133  Biso   1.000  H 
  H48      1.0000 0.78336  0.13289  0.72681  Biso   1.000  H 
  N1       1.0000 0.54265  0.16460  0.08396  Biso   1.000  N 
  N2       1.0000 0.04265  0.66466  0.08397  Biso   1.000  N 
  N3       1.0000 0.04266  0.33531  0.58401  Biso   1.000  N 
  N4       1.0000 0.04456  0.35638  0.39696  Biso   1.000  N 
  N5       1.0000 0.46727  0.84776  0.09130  Biso   1.000  N 
  N6       1.0000 0.54456  0.14360  0.89691  Biso   1.000  N 
  N7       1.0000 0.46691  0.84280  0.90314  Biso   1.000  N 
  N8       1.0000 0.96691  0.34275  0.90322  Biso   1.000  N 
  N9       1.0000 0.96727  0.65213  0.59133  Biso   1.000  N 
  N10      1.0000 0.54266  0.83533  0.58399  Biso   1.000  N 
  N11      1.0000 0.04456  0.64359  0.89692  Biso   1.000  N 
  N12      1.0000 0.46728  0.15217  0.59127  Biso   1.000  N 
  N13      1.0000 0.96692  0.65722  0.40318  Biso   1.000  N 
  N14      1.0000 0.54456  0.85630  0.39693  Biso   1.000  N 
  N15      1.0000 0.96727  0.34783  0.09137  Biso   1.000  N 
  N16      1.0000 0.46691  0.15712  0.40311  Biso   1.000  N 
  Zn1      1.0000 0.50536  0.00787  0.24362  Biso   1.000  Zn
  Zn2      1.0000 0.00536  0.50798  0.24367  Biso   1.000  Zn
  Zn3      1.0000 0.50536  0.99201  0.74363  Biso   1.000  Zn
  Zn4      1.0000 0.00536  0.49196  0.74367  Biso   1.000  Zn
