data_image0
_cell_length_a       33.5603
_cell_length_b       6.78313
_cell_length_c       6.92211
_cell_angle_alpha    89.9351
_cell_angle_beta     87.9366
_cell_angle_gamma    89.9946

_symmetry_space_group_name_H-M    "P 1"
_symmetry_int_tables_number       1

loop_
  _symmetry_equiv_pos_as_xyz
  'x, y, z'

loop_
  _atom_site_label
  _atom_site_occupancy
  _atom_site_fract_x
  _atom_site_fract_y
  _atom_site_fract_z
  _atom_site_thermal_displace_type
  _atom_site_B_iso_or_equiv
  _atom_site_type_symbol
  C1       1.0000 0.86181  0.24137  0.02915  Biso   1.000  C 
  C2       1.0000 0.90524  0.26073  0.03420  Biso   1.000  C 
  C3       1.0000 0.07633  0.22743  0.61317  Biso   1.000  C 
  C4       1.0000 0.71485  0.28213  0.81679  Biso   1.000  C 
  C5       1.0000 0.73339  0.25167  0.99355  Biso   1.000  C 
  C6       1.0000 0.17351  0.78728  0.80648  Biso   1.000  C 
  C7       1.0000 0.93433  0.22698  0.88621  Biso   1.000  C 
  C8       1.0000 0.10543  0.74280  0.96450  Biso   1.000  C 
  C9       1.0000 0.77712  0.75391  0.50534  Biso   1.000  C 
  C10      1.0000 0.79590  0.68397  0.67061  Biso   1.000  C 
  C11      1.0000 0.83712  0.68597  0.68223  Biso   1.000  C 
  C12      1.0000 0.86174  0.75825  0.52884  Biso   1.000  C 
  C13      1.0000 0.34300  0.33136  0.36535  Biso   1.000  C 
  C14      1.0000 0.30170  0.32871  0.35343  Biso   1.000  C 
  C15      1.0000 0.30175  0.67116  0.85371  Biso   1.000  C 
  C16      1.0000 0.34305  0.66865  0.86575  Biso   1.000  C 
  C17      1.0000 0.90517  0.73912  0.53382  Biso   1.000  C 
  C18      1.0000 0.40521  0.76112  0.03484  Biso   1.000  C 
  C19      1.0000 0.33710  0.81412  0.18255  Biso   1.000  C 
  C20      1.0000 0.36178  0.74178  0.02958  Biso   1.000  C 
  C21      1.0000 0.79595  0.31571  0.17049  Biso   1.000  C 
  C22      1.0000 0.80174  0.17075  0.85363  Biso   1.000  C 
  C23      1.0000 0.92673  0.64393  0.67778  Biso   1.000  C 
  C24      1.0000 0.73332  0.74779  0.49364  Biso   1.000  C 
  C25      1.0000 0.70858  0.77205  0.66041  Biso   1.000  C 
  C26      1.0000 0.66735  0.76750  0.65064  Biso   1.000  C 
  C27      1.0000 0.07634  0.77296  0.11274  Biso   1.000  C 
  C28      1.0000 0.17348  0.21247  0.30679  Biso   1.000  C 
  C29      1.0000 0.71477  0.71712  0.31702  Biso   1.000  C 
  C30      1.0000 0.67344  0.71216  0.30707  Biso   1.000  C 
  C31      1.0000 0.27716  0.74584  0.00542  Biso   1.000  C 
  C32      1.0000 0.29589  0.81596  0.17062  Biso   1.000  C 
  C33      1.0000 0.21480  0.21742  0.31685  Biso   1.000  C 
  C34      1.0000 0.23333  0.24804  0.49355  Biso   1.000  C 
  C35      1.0000 0.42673  0.14390  0.67849  Biso   1.000  C 
  C36      1.0000 0.16735  0.73241  0.15020  Biso   1.000  C 
  C37      1.0000 0.43428  0.27323  0.38650  Biso   1.000  C 
  C38      1.0000 0.40519  0.23933  0.53456  Biso   1.000  C 
  C39      1.0000 0.60540  0.75713  0.46531  Biso   1.000  C 
  C40      1.0000 0.84305  0.16819  0.86545  Biso   1.000  C 
  C41      1.0000 0.77718  0.24555  0.00540  Biso   1.000  C 
  C42      1.0000 0.08422  0.35161  0.31908  Biso   1.000  C 
  C43      1.0000 0.92675  0.35621  0.17796  Biso   1.000  C 
  C44      1.0000 0.80165  0.82850  0.35320  Biso   1.000  C 
  C45      1.0000 0.14883  0.76148  0.97306  Biso   1.000  C 
  C46      1.0000 0.84295  0.83112  0.36491  Biso   1.000  C 
  C47      1.0000 0.36176  0.25852  0.52939  Biso   1.000  C 
  C48      1.0000 0.14881  0.23851  0.47331  Biso   1.000  C 
  C49      1.0000 0.16733  0.26770  0.65034  Biso   1.000  C 
  C50      1.0000 0.20856  0.27227  0.66024  Biso   1.000  C 
  C51      1.0000 0.83717  0.31379  0.18222  Biso   1.000  C 
  C52      1.0000 0.57635  0.72748  0.61390  Biso   1.000  C 
  C53      1.0000 0.33710  0.18633  0.68269  Biso   1.000  C 
  C54      1.0000 0.29589  0.18437  0.67086  Biso   1.000  C 
  C55      1.0000 0.64880  0.73823  0.47369  Biso   1.000  C 
  C56      1.0000 0.08424  0.64875  0.81896  Biso   1.000  C 
  C57      1.0000 0.27713  0.25419  0.50547  Biso   1.000  C 
  C58      1.0000 0.58419  0.85123  0.31962  Biso   1.000  C 
  C59      1.0000 0.57640  0.27275  0.11346  Biso   1.000  C 
  C60      1.0000 0.42670  0.85671  0.17859  Biso   1.000  C 
  C61      1.0000 0.70864  0.22760  0.16038  Biso   1.000  C 
  C62      1.0000 0.66741  0.23218  0.15054  Biso   1.000  C 
  C63      1.0000 0.64887  0.26140  0.97348  Biso   1.000  C 
  C64      1.0000 0.23336  0.75187  0.99343  Biso   1.000  C 
  C65      1.0000 0.21484  0.78228  0.81660  Biso   1.000  C 
  C66      1.0000 0.93423  0.77301  0.38566  Biso   1.000  C 
  C67      1.0000 0.10541  0.25740  0.46477  Biso   1.000  C 
  C68      1.0000 0.67352  0.28721  0.80681  Biso   1.000  C 
  C69      1.0000 0.58425  0.14879  0.81954  Biso   1.000  C 
  C70      1.0000 0.20858  0.72781  0.16016  Biso   1.000  C 
  C71      1.0000 0.43432  0.72713  0.88701  Biso   1.000  C 
  C72      1.0000 0.60547  0.24274  0.96507  Biso   1.000  C 
  H1       1.0000 0.23311  0.19328  0.18561  Biso   1.000  H 
  H2       1.0000 0.86080  0.88960  0.24328  Biso   1.000  H 
  H3       1.0000 0.78828  0.88786  0.22425  Biso   1.000  H 
  H4       1.0000 0.85025  0.62569  0.81139  Biso   1.000  H 
  H5       1.0000 0.43136  0.34099  0.24539  Biso   1.000  H 
  H6       1.0000 0.64904  0.79472  0.78130  Biso   1.000  H 
  H7       1.0000 0.16012  0.18592  0.16785  Biso   1.000  H 
  H8       1.0000 0.43143  0.65932  0.74606  Biso   1.000  H 
  H9       1.0000 0.72186  0.80180  0.79884  Biso   1.000  H 
  H10      1.0000 0.57920  0.65932  0.75493  Biso   1.000  H 
  H11      1.0000 0.16017  0.81371  0.66745  Biso   1.000  H 
  H12      1.0000 0.07916  0.15911  0.75414  Biso   1.000  H 
  H13      1.0000 0.36087  0.38979  0.24376  Biso   1.000  H 
  H14      1.0000 0.35020  0.12622  0.81201  Biso   1.000  H 
  H15      1.0000 0.23316  0.80627  0.68531  Biso   1.000  H 
  H16      1.0000 0.77800  0.62193  0.79035  Biso   1.000  H 
  H17      1.0000 0.72191  0.19795  0.29894  Biso   1.000  H 
  H18      1.0000 0.28836  0.38806  0.22439  Biso   1.000  H 
  H19      1.0000 0.93128  0.84059  0.24448  Biso   1.000  H 
  H20      1.0000 0.59501  0.90435  0.17934  Biso   1.000  H 
  H21      1.0000 0.85027  0.37419  0.31125  Biso   1.000  H 
  H22      1.0000 0.57925  0.34093  0.25434  Biso   1.000  H 
  H23      1.0000 0.27797  0.12238  0.79058  Biso   1.000  H 
  H24      1.0000 0.41639  0.91069  0.31912  Biso   1.000  H 
  H25      1.0000 0.14901  0.29488  0.78096  Biso   1.000  H 
  H26      1.0000 0.09505  0.40498  0.17890  Biso   1.000  H 
  H27      1.0000 0.09508  0.59534  0.67895  Biso   1.000  H 
  H28      1.0000 0.28844  0.61160  0.72484  Biso   1.000  H 
  H29      1.0000 0.77804  0.37786  0.28999  Biso   1.000  H 
  H30      1.0000 0.07917  0.84122  0.25359  Biso   1.000  H 
  H31      1.0000 0.93142  0.15926  0.74522  Biso   1.000  H 
  H32      1.0000 0.22183  0.69825  0.29880  Biso   1.000  H 
  H33      1.0000 0.73315  0.30609  0.68546  Biso   1.000  H 
  H34      1.0000 0.36094  0.61007  0.74443  Biso   1.000  H 
  H35      1.0000 0.66015  0.31368  0.66783  Biso   1.000  H 
  H36      1.0000 0.35018  0.87446  0.31167  Biso   1.000  H 
  H37      1.0000 0.64909  0.20508  0.28126  Biso   1.000  H 
  H38      1.0000 0.91647  0.59014  0.81859  Biso   1.000  H 
  H39      1.0000 0.66006  0.68561  0.16818  Biso   1.000  H 
  H40      1.0000 0.14902  0.70534  0.28089  Biso   1.000  H 
  H41      1.0000 0.59507  0.09549  0.67946  Biso   1.000  H 
  H42      1.0000 0.22181  0.30199  0.79876  Biso   1.000  H 
  H43      1.0000 0.91646  0.40999  0.31859  Biso   1.000  H 
  H44      1.0000 0.86092  0.10952  0.74408  Biso   1.000  H 
  H45      1.0000 0.73306  0.69300  0.18571  Biso   1.000  H 
  H46      1.0000 0.41644  0.09002  0.81924  Biso   1.000  H 
  H47      1.0000 0.27795  0.87804  0.29009  Biso   1.000  H 
  H48      1.0000 0.78840  0.11118  0.72485  Biso   1.000  H 
  N1       1.0000 0.54104  0.19675  0.06205  Biso   1.000  N 
  N2       1.0000 0.04099  0.69689  0.06128  Biso   1.000  N 
  N3       1.0000 0.04099  0.30372  0.56164  Biso   1.000  N 
  N4       1.0000 0.04613  0.38201  0.37988  Biso   1.000  N 
  N5       1.0000 0.46480  0.88407  0.11746  Biso   1.000  N 
  N6       1.0000 0.54615  0.11857  0.88040  Biso   1.000  N 
  N7       1.0000 0.46978  0.80334  0.93677  Biso   1.000  N 
  N8       1.0000 0.96979  0.30323  0.93592  Biso   1.000  N 
  N9       1.0000 0.96481  0.61667  0.61650  Biso   1.000  N 
  N10      1.0000 0.54101  0.80372  0.56241  Biso   1.000  N 
  N11      1.0000 0.04613  0.61857  0.87971  Biso   1.000  N 
  N12      1.0000 0.46481  0.11661  0.61730  Biso   1.000  N 
  N13      1.0000 0.96972  0.69711  0.43548  Biso   1.000  N 
  N14      1.0000 0.54611  0.88178  0.38054  Biso   1.000  N 
  N15      1.0000 0.96483  0.38376  0.11670  Biso   1.000  N 
  N16      1.0000 0.46976  0.19718  0.43635  Biso   1.000  N 
  Zn1      1.0000 0.50551  0.04880  0.24932  Biso   1.000  Zn
  Zn2      1.0000 0.00549  0.54887  0.24861  Biso   1.000  Zn
  Zn3      1.0000 0.50551  0.95172  0.74946  Biso   1.000  Zn
  Zn4      1.0000 0.00551  0.45182  0.74880  Biso   1.000  Zn
