data_image0
_cell_length_a       33.36
_cell_length_b       6.3619
_cell_length_c       6.3831
_cell_angle_alpha    89.9913
_cell_angle_beta     83.9846
_cell_angle_gamma    90.0147

_symmetry_space_group_name_H-M    "P 1"
_symmetry_int_tables_number       1

loop_
  _symmetry_equiv_pos_as_xyz
  'x, y, z'

loop_
  _atom_site_label
  _atom_site_occupancy
  _atom_site_fract_x
  _atom_site_fract_y
  _atom_site_fract_z
  _atom_site_thermal_displace_type
  _atom_site_B_iso_or_equiv
  _atom_site_type_symbol
  C1       1.0000 0.86099  0.23588  0.05268  Biso   1.000  C 
  C2       1.0000 0.16418  0.73339  0.14373  Biso   1.000  C 
  C3       1.0000 0.90433  0.24518  0.06788  Biso   1.000  C 
  C4       1.0000 0.07512  0.19031  0.59193  Biso   1.000  C 
  C5       1.0000 0.71898  0.28067  0.78968  Biso   1.000  C 
  C6       1.0000 0.73363  0.24871  0.98590  Biso   1.000  C 
  C7       1.0000 0.93606  0.18603  0.91644  Biso   1.000  C 
  C8       1.0000 0.10621  0.75984  0.93391  Biso   1.000  C 
  C9       1.0000 0.77711  0.75471  0.50728  Biso   1.000  C 
  C10      1.0000 0.79189  0.69746  0.69779  Biso   1.000  C 
  C11      1.0000 0.83278  0.70230  0.72088  Biso   1.000  C 
  C12      1.0000 0.86096  0.76355  0.55265  Biso   1.000  C 
  C13      1.0000 0.34641  0.31625  0.36136  Biso   1.000  C 
  C14      1.0000 0.30549  0.31280  0.33887  Biso   1.000  C 
  C15      1.0000 0.30547  0.68754  0.83891  Biso   1.000  C 
  C16      1.0000 0.34640  0.68414  0.86146  Biso   1.000  C 
  C17      1.0000 0.90430  0.75432  0.56782  Biso   1.000  C 
  C18      1.0000 0.17796  0.78933  0.77004  Biso   1.000  C 
  C19      1.0000 0.33271  0.79773  0.22151  Biso   1.000  C 
  C20      1.0000 0.79192  0.30203  0.19772  Biso   1.000  C 
  C21      1.0000 0.36093  0.73640  0.05351  Biso   1.000  C 
  C22      1.0000 0.80546  0.18713  0.83852  Biso   1.000  C 
  C23      1.0000 0.92367  0.63904  0.71626  Biso   1.000  C 
  C24      1.0000 0.73359  0.75077  0.48602  Biso   1.000  C 
  C25      1.0000 0.70515  0.77702  0.66270  Biso   1.000  C 
  C26      1.0000 0.66416  0.76677  0.64434  Biso   1.000  C 
  C27      1.0000 0.27712  0.74517  0.00744  Biso   1.000  C 
  C28      1.0000 0.17796  0.21098  0.27014  Biso   1.000  C 
  C29      1.0000 0.71893  0.71880  0.28985  Biso   1.000  C 
  C30      1.0000 0.67785  0.71063  0.27067  Biso   1.000  C 
  C31      1.0000 0.29184  0.80255  0.19805  Biso   1.000  C 
  C32      1.0000 0.21903  0.21933  0.28957  Biso   1.000  C 
  C33      1.0000 0.40426  0.74562  0.06899  Biso   1.000  C 
  C34      1.0000 0.23364  0.25126  0.48588  Biso   1.000  C 
  C35      1.0000 0.42361  0.13928  0.71732  Biso   1.000  C 
  C36      1.0000 0.20514  0.72298  0.16240  Biso   1.000  C 
  C37      1.0000 0.07511  0.80991  0.09181  Biso   1.000  C 
  C38      1.0000 0.40428  0.25478  0.56888  Biso   1.000  C 
  C39      1.0000 0.60613  0.74042  0.43489  Biso   1.000  C 
  C40      1.0000 0.84639  0.18366  0.86076  Biso   1.000  C 
  C41      1.0000 0.77714  0.24477  0.00723  Biso   1.000  C 
  C42      1.0000 0.08639  0.34929  0.28286  Biso   1.000  C 
  C43      1.0000 0.92369  0.36053  0.21629  Biso   1.000  C 
  C44      1.0000 0.80543  0.81230  0.33852  Biso   1.000  C 
  C45      1.0000 0.14967  0.76841  0.94749  Biso   1.000  C 
  C46      1.0000 0.84636  0.81573  0.36072  Biso   1.000  C 
  C47      1.0000 0.36096  0.26403  0.55343  Biso   1.000  C 
  C48      1.0000 0.16419  0.26695  0.64380  Biso   1.000  C 
  C49      1.0000 0.20516  0.27740  0.66243  Biso   1.000  C 
  C50      1.0000 0.83281  0.29716  0.22086  Biso   1.000  C 
  C51      1.0000 0.57505  0.69036  0.59293  Biso   1.000  C 
  C52      1.0000 0.43604  0.31413  0.41765  Biso   1.000  C 
  C53      1.0000 0.33273  0.20272  0.72147  Biso   1.000  C 
  C54      1.0000 0.29186  0.19788  0.69807  Biso   1.000  C 
  C55      1.0000 0.14967  0.23189  0.44759  Biso   1.000  C 
  C56      1.0000 0.08638  0.65093  0.78279  Biso   1.000  C 
  C57      1.0000 0.27713  0.25520  0.50746  Biso   1.000  C 
  C58      1.0000 0.64959  0.73176  0.44826  Biso   1.000  C 
  C59      1.0000 0.58629  0.84930  0.28383  Biso   1.000  C 
  C60      1.0000 0.57512  0.30968  0.09274  Biso   1.000  C 
  C61      1.0000 0.70518  0.22256  0.16257  Biso   1.000  C 
  C62      1.0000 0.66420  0.23295  0.14414  Biso   1.000  C 
  C63      1.0000 0.64965  0.26802  0.94803  Biso   1.000  C 
  C64      1.0000 0.42360  0.86111  0.21740  Biso   1.000  C 
  C65      1.0000 0.21902  0.78103  0.78952  Biso   1.000  C 
  C66      1.0000 0.93603  0.81358  0.41634  Biso   1.000  C 
  C67      1.0000 0.10622  0.24042  0.43401  Biso   1.000  C 
  C68      1.0000 0.67791  0.28899  0.77044  Biso   1.000  C 
  C69      1.0000 0.58631  0.15078  0.78365  Biso   1.000  C 
  C70      1.0000 0.23363  0.74911  0.98584  Biso   1.000  C 
  C71      1.0000 0.60618  0.25953  0.93469  Biso   1.000  C 
  C72      1.0000 0.43601  0.68621  0.91780  Biso   1.000  C 
  H1       1.0000 0.43534  0.59740  0.77282  Biso   1.000  H 
  H2       1.0000 0.16766  0.18309  0.11618  Biso   1.000  H 
  H3       1.0000 0.64277  0.79166  0.78327  Biso   1.000  H 
  H4       1.0000 0.79541  0.85786  0.18803  Biso   1.000  H 
  H5       1.0000 0.84282  0.65710  0.87159  Biso   1.000  H 
  H6       1.0000 0.86748  0.85885  0.22584  Biso   1.000  H 
  H7       1.0000 0.71524  0.81109  0.81589  Biso   1.000  H 
  H8       1.0000 0.41076  0.93793  0.36040  Biso   1.000  H 
  H9       1.0000 0.43538  0.40293  0.27262  Biso   1.000  H 
  H10      1.0000 0.57647  0.60726  0.74075  Biso   1.000  H 
  H11      1.0000 0.77096  0.64507  0.82974  Biso   1.000  H 
  H12      1.0000 0.07653  0.10717  0.73974  Biso   1.000  H 
  H13      1.0000 0.16766  0.81718  0.61606  Biso   1.000  H 
  H14      1.0000 0.84285  0.34238  0.37156  Biso   1.000  H 
  H15      1.0000 0.59875  0.91931  0.13625  Biso   1.000  H 
  H16      1.0000 0.93534  0.90227  0.27126  Biso   1.000  H 
  H17      1.0000 0.57657  0.39270  0.24055  Biso   1.000  H 
  H18      1.0000 0.24030  0.80423  0.65000  Biso   1.000  H 
  H19      1.0000 0.34274  0.15743  0.87224  Biso   1.000  H 
  H20      1.0000 0.36756  0.35936  0.22661  Biso   1.000  H 
  H21      1.0000 0.29551  0.35835  0.18830  Biso   1.000  H 
  H22      1.0000 0.27090  0.14541  0.82985  Biso   1.000  H 
  H23      1.0000 0.24029  0.19613  0.15006  Biso   1.000  H 
  H24      1.0000 0.71526  0.18845  0.31579  Biso   1.000  H 
  H25      1.0000 0.91088  0.43718  0.35942  Biso   1.000  H 
  H26      1.0000 0.64279  0.20818  0.28307  Biso   1.000  H 
  H27      1.0000 0.14275  0.29167  0.78263  Biso   1.000  H 
  H28      1.0000 0.74022  0.30391  0.65005  Biso   1.000  H 
  H29      1.0000 0.21520  0.68890  0.31569  Biso   1.000  H 
  H30      1.0000 0.77100  0.35449  0.32961  Biso   1.000  H 
  H31      1.0000 0.07653  0.89305  0.23957  Biso   1.000  H 
  H32      1.0000 0.29550  0.64191  0.68836  Biso   1.000  H 
  H33      1.0000 0.66759  0.31691  0.61654  Biso   1.000  H 
  H34      1.0000 0.09887  0.58090  0.63530  Biso   1.000  H 
  H35      1.0000 0.93538  0.09732  0.77138  Biso   1.000  H 
  H36      1.0000 0.34271  0.84301  0.37227  Biso   1.000  H 
  H37      1.0000 0.36755  0.64103  0.72676  Biso   1.000  H 
  H38      1.0000 0.91087  0.56237  0.85944  Biso   1.000  H 
  H39      1.0000 0.86750  0.14050  0.72592  Biso   1.000  H 
  H40      1.0000 0.79544  0.14159  0.68803  Biso   1.000  H 
  H41      1.0000 0.27088  0.85502  0.32976  Biso   1.000  H 
  H42      1.0000 0.41076  0.06249  0.86036  Biso   1.000  H 
  H43      1.0000 0.09888  0.41932  0.13535  Biso   1.000  H 
  H44      1.0000 0.21521  0.31150  0.81570  Biso   1.000  H 
  H45      1.0000 0.59875  0.08075  0.63608  Biso   1.000  H 
  H46      1.0000 0.14274  0.70867  0.28257  Biso   1.000  H 
  H47      1.0000 0.66751  0.68276  0.11678  Biso   1.000  H 
  H48      1.0000 0.74015  0.69545  0.15020  Biso   1.000  H 
  N1       1.0000 0.47118  0.76743  0.96915  Biso   1.000  N 
  N2       1.0000 0.97124  0.26723  0.96771  Biso   1.000  N 
  N3       1.0000 0.53974  0.23089  0.04192  Biso   1.000  N 
  N4       1.0000 0.03976  0.73092  0.04086  Biso   1.000  N 
  N5       1.0000 0.03976  0.26923  0.54096  Biso   1.000  N 
  N6       1.0000 0.04701  0.36985  0.35104  Biso   1.000  N 
  N7       1.0000 0.54693  0.13030  0.85200  Biso   1.000  N 
  N8       1.0000 0.46318  0.87687  0.15379  Biso   1.000  N 
  N9       1.0000 0.97121  0.73251  0.46762  Biso   1.000  N 
  N10      1.0000 0.04700  0.63032  0.85097  Biso   1.000  N 
  N11      1.0000 0.46319  0.12348  0.65371  Biso   1.000  N 
  N12      1.0000 0.54692  0.86993  0.35215  Biso   1.000  N 
  N13      1.0000 0.96327  0.37641  0.15251  Biso   1.000  N 
  N14      1.0000 0.47120  0.23288  0.46903  Biso   1.000  N 
  N15      1.0000 0.53968  0.76932  0.54209  Biso   1.000  N 
  N16      1.0000 0.96325  0.62331  0.65247  Biso   1.000  N 
  Zn1      1.0000 0.00539  0.56518  0.25360  Biso   1.000  Zn
  Zn2      1.0000 0.50529  0.93479  0.75482  Biso   1.000  Zn
  Zn3      1.0000 0.50532  0.06550  0.25474  Biso   1.000  Zn
  Zn4      1.0000 0.00538  0.43481  0.75363  Biso   1.000  Zn
