data_image0
_cell_length_a       31.6185
_cell_length_b       15.4121
_cell_length_c       7.19744
_cell_angle_alpha    89.9923
_cell_angle_beta     90.1922
_cell_angle_gamma    89.9997

_symmetry_space_group_name_H-M    "P 1"
_symmetry_int_tables_number       1

loop_
  _symmetry_equiv_pos_as_xyz
  'x, y, z'

loop_
  _atom_site_label
  _atom_site_occupancy
  _atom_site_fract_x
  _atom_site_fract_y
  _atom_site_fract_z
  _atom_site_thermal_displace_type
  _atom_site_B_iso_or_equiv
  _atom_site_type_symbol
  C1       1.0000 0.86092  0.33527  0.00100  Biso   1.000  C 
  C2       1.0000 0.64968  0.83446  0.50010  Biso   1.000  C 
  C3       1.0000 0.58270  0.89787  0.34575  Biso   1.000  C 
  C4       1.0000 0.58184  0.10587  0.15189  Biso   1.000  C 
  C5       1.0000 0.42855  0.89700  0.15297  Biso   1.000  C 
  C6       1.0000 0.23352  0.73332  0.00043  Biso   1.000  C 
  C7       1.0000 0.36093  0.16475  0.50100  Biso   1.000  C 
  C8       1.0000 0.33531  0.15993  0.66022  Biso   1.000  C 
  C9       1.0000 0.84363  0.70431  0.34176  Biso   1.000  C 
  C10      1.0000 0.80260  0.73683  0.34135  Biso   1.000  C 
  C11      1.0000 0.92856  0.39697  0.15296  Biso   1.000  C 
  C12      1.0000 0.08270  0.39786  0.34577  Biso   1.000  C 
  C13      1.0000 0.77701  0.26787  0.00058  Biso   1.000  C 
  C14      1.0000 0.84364  0.29567  0.84182  Biso   1.000  C 
  C15      1.0000 0.60717  0.87165  0.49922  Biso   1.000  C 
  C16      1.0000 0.14969  0.66554  0.00012  Biso   1.000  C 
  C17      1.0000 0.29442  0.19310  0.66016  Biso   1.000  C 
  C18      1.0000 0.21623  0.69466  0.16017  Biso   1.000  C 
  C19      1.0000 0.08271  0.60214  0.84575  Biso   1.000  C 
  C20      1.0000 0.42834  0.89568  0.84666  Biso   1.000  C 
  C21      1.0000 0.60718  0.12834  0.99921  Biso   1.000  C 
  C22      1.0000 0.58271  0.10211  0.84573  Biso   1.000  C 
  C23      1.0000 0.66684  0.20478  0.84072  Biso   1.000  C 
  C24      1.0000 0.10718  0.37166  0.49925  Biso   1.000  C 
  C25      1.0000 0.92833  0.60428  0.34663  Biso   1.000  C 
  C26      1.0000 0.20782  0.73753  0.84071  Biso   1.000  C 
  C27      1.0000 0.70783  0.23751  0.84069  Biso   1.000  C 
  C28      1.0000 0.64969  0.16553  0.00010  Biso   1.000  C 
  C29      1.0000 0.67539  0.16128  0.15988  Biso   1.000  C 
  C30      1.0000 0.71624  0.19465  0.16015  Biso   1.000  C 
  C31      1.0000 0.08185  0.39415  0.65193  Biso   1.000  C 
  C32      1.0000 0.90349  0.37218  0.00028  Biso   1.000  C 
  C33      1.0000 0.17538  0.66129  0.15990  Biso   1.000  C 
  C34      1.0000 0.27701  0.23214  0.50059  Biso   1.000  C 
  C35      1.0000 0.40350  0.12782  0.50027  Biso   1.000  C 
  C36      1.0000 0.14969  0.33447  0.50014  Biso   1.000  C 
  C37      1.0000 0.73352  0.23331  0.00041  Biso   1.000  C 
  C38      1.0000 0.42856  0.10302  0.65295  Biso   1.000  C 
  C39      1.0000 0.30261  0.76315  0.84141  Biso   1.000  C 
  C40      1.0000 0.30261  0.23688  0.34140  Biso   1.000  C 
  C41      1.0000 0.34364  0.20436  0.34181  Biso   1.000  C 
  C42      1.0000 0.86092  0.66472  0.50097  Biso   1.000  C 
  C43      1.0000 0.83530  0.65992  0.66020  Biso   1.000  C 
  C44      1.0000 0.79442  0.69309  0.66014  Biso   1.000  C 
  C45      1.0000 0.34363  0.79567  0.84183  Biso   1.000  C 
  C46      1.0000 0.77701  0.73212  0.50055  Biso   1.000  C 
  C47      1.0000 0.92833  0.39570  0.84665  Biso   1.000  C 
  C48      1.0000 0.27701  0.76788  0.00060  Biso   1.000  C 
  C49      1.0000 0.29441  0.80691  0.16016  Biso   1.000  C 
  C50      1.0000 0.20782  0.26249  0.34073  Biso   1.000  C 
  C51      1.0000 0.40349  0.87218  0.00028  Biso   1.000  C 
  C52      1.0000 0.16683  0.70480  0.84074  Biso   1.000  C 
  C53      1.0000 0.10717  0.62835  0.99924  Biso   1.000  C 
  C54      1.0000 0.90349  0.62780  0.50025  Biso   1.000  C 
  C55      1.0000 0.08184  0.60586  0.15191  Biso   1.000  C 
  C56      1.0000 0.33530  0.84008  0.16022  Biso   1.000  C 
  C57      1.0000 0.23352  0.26669  0.50044  Biso   1.000  C 
  C58      1.0000 0.42834  0.10432  0.34665  Biso   1.000  C 
  C59      1.0000 0.58185  0.89414  0.65190  Biso   1.000  C 
  C60      1.0000 0.83530  0.34008  0.16022  Biso   1.000  C 
  C61      1.0000 0.66682  0.79520  0.34074  Biso   1.000  C 
  C62      1.0000 0.70781  0.76246  0.34069  Biso   1.000  C 
  C63      1.0000 0.16683  0.29523  0.34075  Biso   1.000  C 
  C64      1.0000 0.21624  0.30534  0.66016  Biso   1.000  C 
  C65      1.0000 0.67539  0.83871  0.65985  Biso   1.000  C 
  C66      1.0000 0.71624  0.80534  0.66011  Biso   1.000  C 
  C67      1.0000 0.73352  0.76668  0.50039  Biso   1.000  C 
  C68      1.0000 0.92856  0.60303  0.65294  Biso   1.000  C 
  C69      1.0000 0.80261  0.26314  0.84140  Biso   1.000  C 
  C70      1.0000 0.17539  0.33872  0.65990  Biso   1.000  C 
  C71      1.0000 0.79442  0.30690  0.16014  Biso   1.000  C 
  C72      1.0000 0.36092  0.83526  0.00101  Biso   1.000  C 
  H1       1.0000 0.09008  0.60467  0.69865  Biso   1.000  H 
  H2       1.0000 0.92130  0.39078  0.69930  Biso   1.000  H 
  H3       1.0000 0.71985  0.26908  0.71586  Biso   1.000  H 
  H4       1.0000 0.29049  0.73130  0.71677  Biso   1.000  H 
  H5       1.0000 0.23568  0.68822  0.28492  Biso   1.000  H 
  H6       1.0000 0.64747  0.21107  0.71565  Biso   1.000  H 
  H7       1.0000 0.08788  0.61389  0.29945  Biso   1.000  H 
  H8       1.0000 0.16360  0.37081  0.78454  Biso   1.000  H 
  H9       1.0000 0.77505  0.31374  0.28447  Biso   1.000  H 
  H10      1.0000 0.34719  0.87240  0.28473  Biso   1.000  H 
  H11      1.0000 0.79050  0.23130  0.71675  Biso   1.000  H 
  H12      1.0000 0.92222  0.60854  0.80059  Biso   1.000  H 
  H13      1.0000 0.16359  0.62918  0.28453  Biso   1.000  H 
  H14      1.0000 0.27505  0.81375  0.28448  Biso   1.000  H 
  H15      1.0000 0.23569  0.31178  0.78490  Biso   1.000  H 
  H16      1.0000 0.71984  0.73090  0.21588  Biso   1.000  H 
  H17      1.0000 0.09007  0.39532  0.19866  Biso   1.000  H 
  H18      1.0000 0.86289  0.28902  0.71708  Biso   1.000  H 
  H19      1.0000 0.59009  0.10463  0.69863  Biso   1.000  H 
  H20      1.0000 0.42221  0.10850  0.80061  Biso   1.000  H 
  H21      1.0000 0.64746  0.78891  0.21568  Biso   1.000  H 
  H22      1.0000 0.66359  0.12917  0.28451  Biso   1.000  H 
  H23      1.0000 0.36288  0.78902  0.71709  Biso   1.000  H 
  H24      1.0000 0.92221  0.39147  0.30062  Biso   1.000  H 
  H25      1.0000 0.58788  0.11392  0.29943  Biso   1.000  H 
  H26      1.0000 0.21984  0.23093  0.21590  Biso   1.000  H 
  H27      1.0000 0.73569  0.18821  0.28490  Biso   1.000  H 
  H28      1.0000 0.73569  0.81178  0.78484  Biso   1.000  H 
  H29      1.0000 0.86287  0.71095  0.21700  Biso   1.000  H 
  H30      1.0000 0.66360  0.87081  0.78448  Biso   1.000  H 
  H31      1.0000 0.79048  0.76867  0.21668  Biso   1.000  H 
  H32      1.0000 0.14747  0.28894  0.21570  Biso   1.000  H 
  H33      1.0000 0.42130  0.10926  0.19930  Biso   1.000  H 
  H34      1.0000 0.42220  0.89152  0.30062  Biso   1.000  H 
  H35      1.0000 0.84720  0.62760  0.78473  Biso   1.000  H 
  H36      1.0000 0.58789  0.88610  0.79944  Biso   1.000  H 
  H37      1.0000 0.42131  0.89073  0.69931  Biso   1.000  H 
  H38      1.0000 0.08789  0.38613  0.79948  Biso   1.000  H 
  H39      1.0000 0.84719  0.37240  0.28472  Biso   1.000  H 
  H40      1.0000 0.36288  0.21101  0.21707  Biso   1.000  H 
  H41      1.0000 0.92129  0.60919  0.19927  Biso   1.000  H 
  H42      1.0000 0.21984  0.76910  0.71589  Biso   1.000  H 
  H43      1.0000 0.27506  0.18626  0.78451  Biso   1.000  H 
  H44      1.0000 0.29049  0.26873  0.21675  Biso   1.000  H 
  H45      1.0000 0.77506  0.68627  0.78448  Biso   1.000  H 
  H46      1.0000 0.59007  0.89534  0.19864  Biso   1.000  H 
  H47      1.0000 0.34720  0.12760  0.78474  Biso   1.000  H 
  H48      1.0000 0.14747  0.71109  0.71567  Biso   1.000  H 
  N1       1.0000 0.54608  0.93338  0.40362  Biso   1.000  N 
  N2       1.0000 0.96507  0.43246  0.09392  Biso   1.000  N 
  N3       1.0000 0.46507  0.06753  0.59392  Biso   1.000  N 
  N4       1.0000 0.96490  0.56817  0.40439  Biso   1.000  N 
  N5       1.0000 0.04609  0.56663  0.90362  Biso   1.000  N 
  N6       1.0000 0.96507  0.56754  0.59390  Biso   1.000  N 
  N7       1.0000 0.46491  0.06819  0.40440  Biso   1.000  N 
  N8       1.0000 0.54550  0.93085  0.59305  Biso   1.000  N 
  N9       1.0000 0.46491  0.93181  0.90442  Biso   1.000  N 
  N10      1.0000 0.04550  0.56915  0.09304  Biso   1.000  N 
  N11      1.0000 0.96491  0.43182  0.90440  Biso   1.000  N 
  N12      1.0000 0.46506  0.93249  0.09393  Biso   1.000  N 
  N13      1.0000 0.54609  0.06662  0.90360  Biso   1.000  N 
  N14      1.0000 0.04551  0.43085  0.59306  Biso   1.000  N 
  N15      1.0000 0.04609  0.43336  0.40363  Biso   1.000  N 
  N16      1.0000 0.54550  0.06916  0.09303  Biso   1.000  N 
  Zn1      1.0000 0.50541  0.00113  0.24875  Biso   1.000  Zn
  Zn2      1.0000 0.00541  0.50110  0.24875  Biso   1.000  Zn
  Zn3      1.0000 0.50542  0.99887  0.74876  Biso   1.000  Zn
  Zn4      1.0000 0.00541  0.49890  0.74876  Biso   1.000  Zn
