data_image0
_cell_length_a       29.8042
_cell_length_b       18.9436
_cell_length_c       7.18189
_cell_angle_alpha    89.9981
_cell_angle_beta     90.0556
_cell_angle_gamma    90.0004

_symmetry_space_group_name_H-M    "P 1"
_symmetry_int_tables_number       1

loop_
  _symmetry_equiv_pos_as_xyz
  'x, y, z'

loop_
  _atom_site_label
  _atom_site_occupancy
  _atom_site_fract_x
  _atom_site_fract_y
  _atom_site_fract_z
  _atom_site_thermal_displace_type
  _atom_site_B_iso_or_equiv
  _atom_site_type_symbol
  C1       1.0000 0.85961  0.34492  0.00010  Biso   1.000  C 
  C2       1.0000 0.20662  0.27213  0.33966  Biso   1.000  C 
  C3       1.0000 0.29203  0.80529  0.15982  Biso   1.000  C 
  C4       1.0000 0.27670  0.76995  0.99963  Biso   1.000  C 
  C5       1.0000 0.08376  0.59277  0.15368  Biso   1.000  C 
  C6       1.0000 0.42674  0.09185  0.34642  Biso   1.000  C 
  C7       1.0000 0.92674  0.40815  0.84641  Biso   1.000  C 
  C8       1.0000 0.10882  0.61664  0.00031  Biso   1.000  C 
  C9       1.0000 0.77670  0.73005  0.49960  Biso   1.000  C 
  C10      1.0000 0.79203  0.69471  0.65980  Biso   1.000  C 
  C11      1.0000 0.83239  0.65792  0.65991  Biso   1.000  C 
  C12      1.0000 0.85961  0.65508  0.50007  Biso   1.000  C 
  C13      1.0000 0.34439  0.19066  0.34006  Biso   1.000  C 
  C14      1.0000 0.30386  0.22702  0.33968  Biso   1.000  C 
  C15      1.0000 0.30386  0.77298  0.83968  Biso   1.000  C 
  C16      1.0000 0.34439  0.80934  0.84005  Biso   1.000  C 
  C17      1.0000 0.90186  0.61595  0.49997  Biso   1.000  C 
  C18      1.0000 0.58377  0.90724  0.65368  Biso   1.000  C 
  C19      1.0000 0.33239  0.84208  0.15993  Biso   1.000  C 
  C20      1.0000 0.35961  0.84492  0.00009  Biso   1.000  C 
  C21      1.0000 0.79203  0.30529  0.15982  Biso   1.000  C 
  C22      1.0000 0.80386  0.27298  0.83968  Biso   1.000  C 
  C23      1.0000 0.92694  0.59203  0.65341  Biso   1.000  C 
  C24      1.0000 0.73380  0.76881  0.49969  Biso   1.000  C 
  C25      1.0000 0.71851  0.80392  0.66020  Biso   1.000  C 
  C26      1.0000 0.67819  0.84081  0.66045  Biso   1.000  C 
  C27      1.0000 0.15098  0.34400  0.50044  Biso   1.000  C 
  C28      1.0000 0.16613  0.30860  0.34017  Biso   1.000  C 
  C29      1.0000 0.70662  0.77213  0.33962  Biso   1.000  C 
  C30      1.0000 0.66613  0.80859  0.34015  Biso   1.000  C 
  C31      1.0000 0.17819  0.34082  0.66047  Biso   1.000  C 
  C32      1.0000 0.21851  0.30393  0.66023  Biso   1.000  C 
  C33      1.0000 0.83239  0.34208  0.15993  Biso   1.000  C 
  C34      1.0000 0.23380  0.26881  0.49972  Biso   1.000  C 
  C35      1.0000 0.42694  0.09204  0.65345  Biso   1.000  C 
  C36      1.0000 0.40186  0.88404  0.00000  Biso   1.000  C 
  C37      1.0000 0.65098  0.84400  0.50043  Biso   1.000  C 
  C38      1.0000 0.40186  0.11596  0.50002  Biso   1.000  C 
  C39      1.0000 0.60882  0.88336  0.50031  Biso   1.000  C 
  C40      1.0000 0.84440  0.30934  0.84005  Biso   1.000  C 
  C41      1.0000 0.77670  0.26995  0.99963  Biso   1.000  C 
  C42      1.0000 0.08407  0.40794  0.34667  Biso   1.000  C 
  C43      1.0000 0.92694  0.40796  0.15344  Biso   1.000  C 
  C44      1.0000 0.80386  0.72701  0.33964  Biso   1.000  C 
  C45      1.0000 0.15098  0.65600  0.00043  Biso   1.000  C 
  C46      1.0000 0.84439  0.69065  0.34001  Biso   1.000  C 
  C47      1.0000 0.35961  0.15508  0.50011  Biso   1.000  C 
  C48      1.0000 0.21851  0.69608  0.16022  Biso   1.000  C 
  C49      1.0000 0.23380  0.73119  0.99971  Biso   1.000  C 
  C50      1.0000 0.42693  0.90797  0.15344  Biso   1.000  C 
  C51      1.0000 0.58376  0.09277  0.15369  Biso   1.000  C 
  C52      1.0000 0.58407  0.90794  0.34666  Biso   1.000  C 
  C53      1.0000 0.33239  0.15792  0.65994  Biso   1.000  C 
  C54      1.0000 0.29203  0.19471  0.65983  Biso   1.000  C 
  C55      1.0000 0.17819  0.65918  0.16046  Biso   1.000  C 
  C56      1.0000 0.08408  0.59206  0.84666  Biso   1.000  C 
  C57      1.0000 0.27670  0.23006  0.49964  Biso   1.000  C 
  C58      1.0000 0.90186  0.38404  0.00000  Biso   1.000  C 
  C59      1.0000 0.08376  0.40723  0.65368  Biso   1.000  C 
  C60      1.0000 0.70662  0.22787  0.83964  Biso   1.000  C 
  C61      1.0000 0.71851  0.19608  0.16022  Biso   1.000  C 
  C62      1.0000 0.67819  0.15918  0.16047  Biso   1.000  C 
  C63      1.0000 0.65098  0.15600  0.00044  Biso   1.000  C 
  C64      1.0000 0.73380  0.23119  0.99971  Biso   1.000  C 
  C65      1.0000 0.20662  0.72787  0.83964  Biso   1.000  C 
  C66      1.0000 0.92674  0.59185  0.34639  Biso   1.000  C 
  C67      1.0000 0.10882  0.38336  0.50032  Biso   1.000  C 
  C68      1.0000 0.66613  0.19140  0.84016  Biso   1.000  C 
  C69      1.0000 0.58408  0.09205  0.84667  Biso   1.000  C 
  C70      1.0000 0.16613  0.69140  0.84016  Biso   1.000  C 
  C71      1.0000 0.42675  0.90814  0.84641  Biso   1.000  C 
  C72      1.0000 0.60882  0.11664  0.00032  Biso   1.000  C 
  H1       1.0000 0.21683  0.24397  0.21413  Biso   1.000  H 
  H2       1.0000 0.14540  0.30846  0.21483  Biso   1.000  H 
  H3       1.0000 0.66812  0.86910  0.78602  Biso   1.000  H 
  H4       1.0000 0.79358  0.75533  0.21436  Biso   1.000  H 
  H5       1.0000 0.84248  0.62944  0.78520  Biso   1.000  H 
  H6       1.0000 0.86507  0.69099  0.21471  Biso   1.000  H 
  H7       1.0000 0.73930  0.80403  0.78532  Biso   1.000  H 
  H8       1.0000 0.41974  0.90333  0.69859  Biso   1.000  H 
  H9       1.0000 0.41972  0.09665  0.19860  Biso   1.000  H 
  H10      1.0000 0.58994  0.90048  0.80162  Biso   1.000  H 
  H11      1.0000 0.34248  0.12943  0.78522  Biso   1.000  H 
  H12      1.0000 0.08994  0.40047  0.80162  Biso   1.000  H 
  H13      1.0000 0.91973  0.59665  0.19856  Biso   1.000  H 
  H14      1.0000 0.21683  0.75604  0.71412  Biso   1.000  H 
  H15      1.0000 0.14541  0.69154  0.71480  Biso   1.000  H 
  H16      1.0000 0.84248  0.37057  0.28521  Biso   1.000  H 
  H17      1.0000 0.73930  0.19596  0.28535  Biso   1.000  H 
  H18      1.0000 0.36508  0.19101  0.21477  Biso   1.000  H 
  H19      1.0000 0.29359  0.25534  0.21440  Biso   1.000  H 
  H20      1.0000 0.77125  0.69434  0.78478  Biso   1.000  H 
  H21      1.0000 0.59112  0.90332  0.19888  Biso   1.000  H 
  H22      1.0000 0.58993  0.09953  0.30162  Biso   1.000  H 
  H23      1.0000 0.27125  0.19433  0.78481  Biso   1.000  H 
  H24      1.0000 0.42067  0.90151  0.30135  Biso   1.000  H 
  H25      1.0000 0.16812  0.36911  0.78602  Biso   1.000  H 
  H26      1.0000 0.09113  0.40332  0.19889  Biso   1.000  H 
  H27      1.0000 0.09113  0.59668  0.69888  Biso   1.000  H 
  H28      1.0000 0.71683  0.25603  0.71412  Biso   1.000  H 
  H29      1.0000 0.23930  0.69597  0.28535  Biso   1.000  H 
  H30      1.0000 0.77125  0.30567  0.28479  Biso   1.000  H 
  H31      1.0000 0.08994  0.59953  0.30162  Biso   1.000  H 
  H32      1.0000 0.29359  0.74467  0.71439  Biso   1.000  H 
  H33      1.0000 0.64541  0.19154  0.71482  Biso   1.000  H 
  H34      1.0000 0.36508  0.80900  0.71476  Biso   1.000  H 
  H35      1.0000 0.91973  0.40335  0.69859  Biso   1.000  H 
  H36      1.0000 0.34248  0.87057  0.28521  Biso   1.000  H 
  H37      1.0000 0.66812  0.13089  0.28603  Biso   1.000  H 
  H38      1.0000 0.92068  0.59850  0.80132  Biso   1.000  H 
  H39      1.0000 0.42068  0.09851  0.80136  Biso   1.000  H 
  H40      1.0000 0.59113  0.09667  0.69889  Biso   1.000  H 
  H41      1.0000 0.86508  0.30899  0.71477  Biso   1.000  H 
  H42      1.0000 0.79359  0.24466  0.71439  Biso   1.000  H 
  H43      1.0000 0.92068  0.40149  0.30134  Biso   1.000  H 
  H44      1.0000 0.16812  0.63089  0.28602  Biso   1.000  H 
  H45      1.0000 0.64540  0.80846  0.21480  Biso   1.000  H 
  H46      1.0000 0.71683  0.74396  0.21411  Biso   1.000  H 
  H47      1.0000 0.23930  0.30404  0.78536  Biso   1.000  H 
  H48      1.0000 0.27125  0.80566  0.28480  Biso   1.000  H 
  N1       1.0000 0.54754  0.05655  0.90509  Biso   1.000  N 
  N2       1.0000 0.46356  0.94318  0.09471  Biso   1.000  N 
  N3       1.0000 0.46339  0.94341  0.90494  Biso   1.000  N 
  N4       1.0000 0.96339  0.44341  0.90493  Biso   1.000  N 
  N5       1.0000 0.54729  0.05713  0.09486  Biso   1.000  N 
  N6       1.0000 0.04729  0.55713  0.09485  Biso   1.000  N 
  N7       1.0000 0.04753  0.44345  0.40509  Biso   1.000  N 
  N8       1.0000 0.04729  0.44287  0.59486  Biso   1.000  N 
  N9       1.0000 0.96356  0.44318  0.09470  Biso   1.000  N 
  N10      1.0000 0.46356  0.05682  0.59471  Biso   1.000  N 
  N11      1.0000 0.54753  0.94345  0.40509  Biso   1.000  N 
  N12      1.0000 0.46339  0.05659  0.40494  Biso   1.000  N 
  N13      1.0000 0.54729  0.94288  0.59486  Biso   1.000  N 
  N14      1.0000 0.96356  0.55682  0.59469  Biso   1.000  N 
  N15      1.0000 0.04754  0.55655  0.90508  Biso   1.000  N 
  N16      1.0000 0.96339  0.55659  0.40492  Biso   1.000  N 
  Zn1      1.0000 0.50548  0.00009  0.24987  Biso   1.000  Zn
  Zn2      1.0000 0.00548  0.50009  0.24986  Biso   1.000  Zn
  Zn3      1.0000 0.50548  0.99991  0.74987  Biso   1.000  Zn
  Zn4      1.0000 0.00548  0.49991  0.74987  Biso   1.000  Zn
