data_image0
_cell_length_a       26.4034
_cell_length_b       23.5673
_cell_length_c       7.28375
_cell_angle_alpha    89.9802
_cell_angle_beta     90.9223
_cell_angle_gamma    89.9997

_symmetry_space_group_name_H-M    "P 1"
_symmetry_int_tables_number       1

loop_
  _symmetry_equiv_pos_as_xyz
  'x, y, z'

loop_
  _atom_site_label
  _atom_site_occupancy
  _atom_site_fract_x
  _atom_site_fract_y
  _atom_site_fract_z
  _atom_site_thermal_displace_type
  _atom_site_B_iso_or_equiv
  _atom_site_type_symbol
  C1       1.0000 0.85860  0.34901  0.00073  Biso   1.000  C 
  C2       1.0000 0.40012  0.89012  0.99996  Biso   1.000  C 
  C3       1.0000 0.20443  0.28030  0.34188  Biso   1.000  C 
  C4       1.0000 0.28928  0.80213  0.15818  Biso   1.000  C 
  C5       1.0000 0.27671  0.76987  0.00139  Biso   1.000  C 
  C6       1.0000 0.08474  0.58684  0.14977  Biso   1.000  C 
  C7       1.0000 0.92518  0.41332  0.84845  Biso   1.000  C 
  C8       1.0000 0.11040  0.60947  0.99875  Biso   1.000  C 
  C9       1.0000 0.77672  0.73013  0.50137  Biso   1.000  C 
  C10      1.0000 0.78930  0.69787  0.65821  Biso   1.000  C 
  C11      1.0000 0.82908  0.65917  0.65767  Biso   1.000  C 
  C12      1.0000 0.85861  0.65099  0.50068  Biso   1.000  C 
  C13      1.0000 0.34630  0.18359  0.34424  Biso   1.000  C 
  C14      1.0000 0.30628  0.22199  0.34446  Biso   1.000  C 
  C15      1.0000 0.30629  0.77802  0.84451  Biso   1.000  C 
  C16      1.0000 0.34632  0.81641  0.84429  Biso   1.000  C 
  C17      1.0000 0.90012  0.60988  0.49997  Biso   1.000  C 
  C18      1.0000 0.42512  0.08665  0.34833  Biso   1.000  C 
  C19      1.0000 0.32906  0.84083  0.15764  Biso   1.000  C 
  C20      1.0000 0.78927  0.30213  0.15819  Biso   1.000  C 
  C21      1.0000 0.35860  0.84901  0.00068  Biso   1.000  C 
  C22      1.0000 0.80630  0.27803  0.84451  Biso   1.000  C 
  C23      1.0000 0.92424  0.58336  0.65072  Biso   1.000  C 
  C24      1.0000 0.73418  0.77079  0.50098  Biso   1.000  C 
  C25      1.0000 0.72174  0.80163  0.65945  Biso   1.000  C 
  C26      1.0000 0.68188  0.84022  0.65843  Biso   1.000  C 
  C27      1.0000 0.18187  0.34020  0.65853  Biso   1.000  C 
  C28      1.0000 0.16431  0.31857  0.34118  Biso   1.000  C 
  C29      1.0000 0.70444  0.78030  0.34183  Biso   1.000  C 
  C30      1.0000 0.66432  0.81857  0.34110  Biso   1.000  C 
  C31      1.0000 0.22174  0.30161  0.65952  Biso   1.000  C 
  C32      1.0000 0.82905  0.34083  0.15768  Biso   1.000  C 
  C33      1.0000 0.58478  0.91318  0.64973  Biso   1.000  C 
  C34      1.0000 0.23417  0.27079  0.50103  Biso   1.000  C 
  C35      1.0000 0.42425  0.08337  0.65067  Biso   1.000  C 
  C36      1.0000 0.16433  0.68144  0.84110  Biso   1.000  C 
  C37      1.0000 0.15210  0.34965  0.49939  Biso   1.000  C 
  C38      1.0000 0.40012  0.10988  0.49993  Biso   1.000  C 
  C39      1.0000 0.61041  0.89054  0.49870  Biso   1.000  C 
  C40      1.0000 0.84632  0.31642  0.84432  Biso   1.000  C 
  C41      1.0000 0.77671  0.26987  0.00139  Biso   1.000  C 
  C42      1.0000 0.08671  0.41734  0.34774  Biso   1.000  C 
  C43      1.0000 0.92419  0.41667  0.15076  Biso   1.000  C 
  C44      1.0000 0.80628  0.72198  0.34445  Biso   1.000  C 
  C45      1.0000 0.15209  0.65035  0.99934  Biso   1.000  C 
  C46      1.0000 0.84630  0.68359  0.34424  Biso   1.000  C 
  C47      1.0000 0.35861  0.15099  0.50066  Biso   1.000  C 
  C48      1.0000 0.23417  0.72922  0.00102  Biso   1.000  C 
  C49      1.0000 0.42420  0.91666  0.15068  Biso   1.000  C 
  C50      1.0000 0.58473  0.08684  0.14970  Biso   1.000  C 
  C51      1.0000 0.58671  0.91734  0.34764  Biso   1.000  C 
  C52      1.0000 0.65211  0.84966  0.49929  Biso   1.000  C 
  C53      1.0000 0.32908  0.15916  0.65767  Biso   1.000  C 
  C54      1.0000 0.28930  0.19786  0.65822  Biso   1.000  C 
  C55      1.0000 0.22170  0.69839  0.15953  Biso   1.000  C 
  C56      1.0000 0.08675  0.58265  0.84770  Biso   1.000  C 
  C57      1.0000 0.27671  0.23013  0.50139  Biso   1.000  C 
  C58      1.0000 0.18184  0.65980  0.15852  Biso   1.000  C 
  C59      1.0000 0.90011  0.39013  0.00003  Biso   1.000  C 
  C60      1.0000 0.08476  0.41316  0.64984  Biso   1.000  C 
  C61      1.0000 0.72171  0.19837  0.15949  Biso   1.000  C 
  C62      1.0000 0.68184  0.15978  0.15846  Biso   1.000  C 
  C63      1.0000 0.65210  0.15034  0.99927  Biso   1.000  C 
  C64      1.0000 0.70446  0.21971  0.84178  Biso   1.000  C 
  C65      1.0000 0.20445  0.71971  0.84182  Biso   1.000  C 
  C66      1.0000 0.92514  0.58666  0.34838  Biso   1.000  C 
  C67      1.0000 0.11040  0.39053  0.49881  Biso   1.000  C 
  C68      1.0000 0.66434  0.18143  0.84104  Biso   1.000  C 
  C69      1.0000 0.58676  0.08263  0.84763  Biso   1.000  C 
  C70      1.0000 0.73417  0.22921  0.00098  Biso   1.000  C 
  C71      1.0000 0.61041  0.10946  0.99868  Biso   1.000  C 
  C72      1.0000 0.42518  0.91331  0.84837  Biso   1.000  C 
  H1       1.0000 0.41897  0.90586  0.70263  Biso   1.000  H 
  H2       1.0000 0.74471  0.79651  0.78421  Biso   1.000  H 
  H3       1.0000 0.86903  0.67960  0.22111  Biso   1.000  H 
  H4       1.0000 0.67442  0.86458  0.78249  Biso   1.000  H 
  H5       1.0000 0.79856  0.74735  0.22181  Biso   1.000  H 
  H6       1.0000 0.14132  0.32358  0.21638  Biso   1.000  H 
  H7       1.0000 0.41885  0.09406  0.20258  Biso   1.000  H 
  H8       1.0000 0.41778  0.91154  0.29662  Biso   1.000  H 
  H9       1.0000 0.83665  0.63380  0.78041  Biso   1.000  H 
  H10      1.0000 0.58977  0.90432  0.79522  Biso   1.000  H 
  H11      1.0000 0.83660  0.36618  0.28039  Biso   1.000  H 
  H12      1.0000 0.08975  0.40429  0.79533  Biso   1.000  H 
  H13      1.0000 0.33665  0.13379  0.78041  Biso   1.000  H 
  H14      1.0000 0.59449  0.91362  0.20218  Biso   1.000  H 
  H15      1.0000 0.76652  0.70196  0.78114  Biso   1.000  H 
  H16      1.0000 0.29856  0.24736  0.22183  Biso   1.000  H 
  H17      1.0000 0.58968  0.09574  0.29517  Biso   1.000  H 
  H18      1.0000 0.14136  0.67643  0.71626  Biso   1.000  H 
  H19      1.0000 0.21208  0.74398  0.71772  Biso   1.000  H 
  H20      1.0000 0.91888  0.59408  0.20263  Biso   1.000  H 
  H21      1.0000 0.36903  0.17960  0.22110  Biso   1.000  H 
  H22      1.0000 0.26652  0.20195  0.78116  Biso   1.000  H 
  H23      1.0000 0.21204  0.25603  0.21780  Biso   1.000  H 
  H24      1.0000 0.74466  0.20349  0.28429  Biso   1.000  H 
  H25      1.0000 0.91777  0.41155  0.29670  Biso   1.000  H 
  H26      1.0000 0.67436  0.13542  0.28253  Biso   1.000  H 
  H27      1.0000 0.17441  0.36455  0.78259  Biso   1.000  H 
  H28      1.0000 0.64138  0.17643  0.71619  Biso   1.000  H 
  H29      1.0000 0.29859  0.75266  0.72190  Biso   1.000  H 
  H30      1.0000 0.24466  0.70351  0.28433  Biso   1.000  H 
  H31      1.0000 0.76647  0.29803  0.28109  Biso   1.000  H 
  H32      1.0000 0.71209  0.24398  0.71769  Biso   1.000  H 
  H33      1.0000 0.91897  0.40586  0.70270  Biso   1.000  H 
  H34      1.0000 0.09456  0.58635  0.70225  Biso   1.000  H 
  H35      1.0000 0.08969  0.59572  0.29524  Biso   1.000  H 
  H36      1.0000 0.33661  0.86619  0.28036  Biso   1.000  H 
  H37      1.0000 0.36906  0.82041  0.72118  Biso   1.000  H 
  H38      1.0000 0.91787  0.58851  0.79666  Biso   1.000  H 
  H39      1.0000 0.17436  0.63544  0.28262  Biso   1.000  H 
  H40      1.0000 0.26648  0.79804  0.28109  Biso   1.000  H 
  H41      1.0000 0.24471  0.29649  0.78427  Biso   1.000  H 
  H42      1.0000 0.71204  0.75602  0.21777  Biso   1.000  H 
  H43      1.0000 0.09450  0.41362  0.20229  Biso   1.000  H 
  H44      1.0000 0.79860  0.25267  0.72190  Biso   1.000  H 
  H45      1.0000 0.86906  0.32043  0.72122  Biso   1.000  H 
  H46      1.0000 0.59458  0.08632  0.70219  Biso   1.000  H 
  H47      1.0000 0.41789  0.08854  0.79662  Biso   1.000  H 
  H48      1.0000 0.64133  0.82357  0.21630  Biso   1.000  H 
  N1       1.0000 0.05030  0.45292  0.40529  Biso   1.000  N 
  N2       1.0000 0.04899  0.45020  0.59232  Biso   1.000  N 
  N3       1.0000 0.55033  0.04706  0.90520  Biso   1.000  N 
  N4       1.0000 0.46034  0.95247  0.09254  Biso   1.000  N 
  N5       1.0000 0.46093  0.95045  0.90535  Biso   1.000  N 
  N6       1.0000 0.96093  0.45045  0.90543  Biso   1.000  N 
  N7       1.0000 0.04898  0.54980  0.09226  Biso   1.000  N 
  N8       1.0000 0.54897  0.04981  0.09220  Biso   1.000  N 
  N9       1.0000 0.54900  0.95021  0.59222  Biso   1.000  N 
  N10      1.0000 0.55030  0.95292  0.40520  Biso   1.000  N 
  N11      1.0000 0.46089  0.04952  0.40531  Biso   1.000  N 
  N12      1.0000 0.96037  0.54754  0.59259  Biso   1.000  N 
  N13      1.0000 0.05032  0.54707  0.90526  Biso   1.000  N 
  N14      1.0000 0.96090  0.54953  0.40538  Biso   1.000  N 
  N15      1.0000 0.46038  0.04755  0.59253  Biso   1.000  N 
  N16      1.0000 0.96034  0.45247  0.09263  Biso   1.000  N 
  Zn1      1.0000 0.00509  0.50160  0.24893  Biso   1.000  Zn
  Zn2      1.0000 0.50514  0.99840  0.74886  Biso   1.000  Zn
  Zn3      1.0000 0.50509  0.00160  0.24884  Biso   1.000  Zn
  Zn4      1.0000 0.00513  0.49840  0.74895  Biso   1.000  Zn
