data_image0
_cell_length_a       25.1227
_cell_length_b       24.9955
_cell_length_c       7.66697
_cell_angle_alpha    89.9775
_cell_angle_beta     90.3249
_cell_angle_gamma    90.0001

_symmetry_space_group_name_H-M    "P 1"
_symmetry_int_tables_number       1

loop_
  _symmetry_equiv_pos_as_xyz
  'x, y, z'

loop_
  _atom_site_label
  _atom_site_occupancy
  _atom_site_fract_x
  _atom_site_fract_y
  _atom_site_fract_z
  _atom_site_thermal_displace_type
  _atom_site_B_iso_or_equiv
  _atom_site_type_symbol
  C1       1.0000 0.85769  0.35129  0.00002  Biso   1.000  C 
  C2       1.0000 0.65303  0.85200  0.50000  Biso   1.000  C 
  C3       1.0000 0.58702  0.91878  0.35639  Biso   1.000  C 
  C4       1.0000 0.58628  0.08241  0.14315  Biso   1.000  C 
  C5       1.0000 0.42328  0.91858  0.14303  Biso   1.000  C 
  C6       1.0000 0.23441  0.72874  0.00039  Biso   1.000  C 
  C7       1.0000 0.35771  0.14873  0.49994  Biso   1.000  C 
  C8       1.0000 0.32696  0.15924  0.64922  Biso   1.000  C 
  C9       1.0000 0.84671  0.67998  0.35101  Biso   1.000  C 
  C10      1.0000 0.80717  0.71909  0.35111  Biso   1.000  C 
  C11      1.0000 0.92328  0.41858  0.14302  Biso   1.000  C 
  C12      1.0000 0.08702  0.41878  0.35638  Biso   1.000  C 
  C13      1.0000 0.77645  0.27036  0.00043  Biso   1.000  C 
  C14      1.0000 0.84673  0.32003  0.85116  Biso   1.000  C 
  C15      1.0000 0.61149  0.89339  0.49984  Biso   1.000  C 
  C16      1.0000 0.15304  0.64798  0.99997  Biso   1.000  C 
  C17      1.0000 0.28768  0.19861  0.64956  Biso   1.000  C 
  C18      1.0000 0.22263  0.69878  0.15100  Biso   1.000  C 
  C19      1.0000 0.08709  0.58118  0.85634  Biso   1.000  C 
  C20      1.0000 0.42422  0.91707  0.85628  Biso   1.000  C 
  C21      1.0000 0.61151  0.10659  0.99982  Biso   1.000  C 
  C22      1.0000 0.58709  0.08118  0.85636  Biso   1.000  C 
  C23      1.0000 0.66464  0.17810  0.84953  Biso   1.000  C 
  C24      1.0000 0.11149  0.39339  0.49983  Biso   1.000  C 
  C25      1.0000 0.92417  0.58290  0.35618  Biso   1.000  C 
  C26      1.0000 0.20423  0.71715  0.84963  Biso   1.000  C 
  C27      1.0000 0.70424  0.21714  0.84964  Biso   1.000  C 
  C28      1.0000 0.65304  0.14798  0.99999  Biso   1.000  C 
  C29      1.0000 0.68329  0.15947  0.15068  Biso   1.000  C 
  C30      1.0000 0.72264  0.19877  0.15101  Biso   1.000  C 
  C31      1.0000 0.08633  0.41760  0.64317  Biso   1.000  C 
  C32      1.0000 0.89906  0.39288  0.99975  Biso   1.000  C 
  C33      1.0000 0.18329  0.65948  0.15067  Biso   1.000  C 
  C34      1.0000 0.27645  0.22964  0.50039  Biso   1.000  C 
  C35      1.0000 0.39908  0.10714  0.49967  Biso   1.000  C 
  C36      1.0000 0.15303  0.35200  0.50000  Biso   1.000  C 
  C37      1.0000 0.73442  0.22873  0.00039  Biso   1.000  C 
  C38      1.0000 0.42338  0.08150  0.64297  Biso   1.000  C 
  C39      1.0000 0.30719  0.78092  0.85123  Biso   1.000  C 
  C40      1.0000 0.30717  0.21910  0.35113  Biso   1.000  C 
  C41      1.0000 0.34671  0.17998  0.35104  Biso   1.000  C 
  C42      1.0000 0.85771  0.64873  0.49992  Biso   1.000  C 
  C43      1.0000 0.82696  0.65925  0.64919  Biso   1.000  C 
  C44      1.0000 0.78768  0.69861  0.64953  Biso   1.000  C 
  C45      1.0000 0.34672  0.82004  0.85116  Biso   1.000  C 
  C46      1.0000 0.77645  0.72964  0.50036  Biso   1.000  C 
  C47      1.0000 0.92422  0.41707  0.85627  Biso   1.000  C 
  C48      1.0000 0.27644  0.77037  0.00044  Biso   1.000  C 
  C49      1.0000 0.28763  0.80138  0.14958  Biso   1.000  C 
  C50      1.0000 0.20421  0.28287  0.34965  Biso   1.000  C 
  C51      1.0000 0.39906  0.89288  0.99976  Biso   1.000  C 
  C52      1.0000 0.16463  0.67810  0.84951  Biso   1.000  C 
  C53      1.0000 0.11151  0.60659  0.99979  Biso   1.000  C 
  C54      1.0000 0.89909  0.60715  0.49965  Biso   1.000  C 
  C55      1.0000 0.08629  0.58241  0.14313  Biso   1.000  C 
  C56      1.0000 0.32691  0.84076  0.14925  Biso   1.000  C 
  C57      1.0000 0.23441  0.27126  0.50036  Biso   1.000  C 
  C58      1.0000 0.42416  0.08290  0.35620  Biso   1.000  C 
  C59      1.0000 0.58633  0.91760  0.64318  Biso   1.000  C 
  C60      1.0000 0.82691  0.34076  0.14924  Biso   1.000  C 
  C61      1.0000 0.66460  0.82190  0.34955  Biso   1.000  C 
  C62      1.0000 0.70421  0.78287  0.34963  Biso   1.000  C 
  C63      1.0000 0.16460  0.32190  0.34956  Biso   1.000  C 
  C64      1.0000 0.22266  0.30120  0.65095  Biso   1.000  C 
  C65      1.0000 0.68331  0.84049  0.65064  Biso   1.000  C 
  C66      1.0000 0.72266  0.80120  0.65094  Biso   1.000  C 
  C67      1.0000 0.73441  0.77126  0.50034  Biso   1.000  C 
  C68      1.0000 0.92338  0.58150  0.64296  Biso   1.000  C 
  C69      1.0000 0.80720  0.28091  0.85124  Biso   1.000  C 
  C70      1.0000 0.18331  0.34049  0.65065  Biso   1.000  C 
  C71      1.0000 0.78764  0.30138  0.14957  Biso   1.000  C 
  C72      1.0000 0.35769  0.85129  0.00003  Biso   1.000  C 
  H1       1.0000 0.09425  0.58647  0.71781  Biso   1.000  H 
  H2       1.0000 0.91796  0.41038  0.71768  Biso   1.000  H 
  H3       1.0000 0.71095  0.24022  0.73094  Biso   1.000  H 
  H4       1.0000 0.30097  0.75697  0.73392  Biso   1.000  H 
  H5       1.0000 0.24582  0.70536  0.26984  Biso   1.000  H 
  H6       1.0000 0.64148  0.17163  0.73053  Biso   1.000  H 
  H7       1.0000 0.09178  0.58980  0.28167  Biso   1.000  H 
  H8       1.0000 0.17674  0.36354  0.76947  Biso   1.000  H 
  H9       1.0000 0.76405  0.29557  0.26715  Biso   1.000  H 
  H10      1.0000 0.33301  0.86462  0.26684  Biso   1.000  H 
  H11      1.0000 0.80098  0.25696  0.73392  Biso   1.000  H 
  H12      1.0000 0.91713  0.58761  0.78161  Biso   1.000  H 
  H13      1.0000 0.17671  0.63642  0.26950  Biso   1.000  H 
  H14      1.0000 0.26404  0.79557  0.26716  Biso   1.000  H 
  H15      1.0000 0.24587  0.29461  0.76976  Biso   1.000  H 
  H16      1.0000 0.71090  0.75981  0.23095  Biso   1.000  H 
  H17      1.0000 0.09413  0.41347  0.21784  Biso   1.000  H 
  H18      1.0000 0.87031  0.32567  0.73348  Biso   1.000  H 
  H19      1.0000 0.59426  0.08647  0.71784  Biso   1.000  H 
  H20      1.0000 0.41713  0.08761  0.78162  Biso   1.000  H 
  H21      1.0000 0.64143  0.82838  0.23058  Biso   1.000  H 
  H22      1.0000 0.67671  0.13642  0.26952  Biso   1.000  H 
  H23      1.0000 0.37030  0.82568  0.73348  Biso   1.000  H 
  H24      1.0000 0.91695  0.41252  0.28168  Biso   1.000  H 
  H25      1.0000 0.59177  0.08981  0.28170  Biso   1.000  H 
  H26      1.0000 0.21091  0.25980  0.23098  Biso   1.000  H 
  H27      1.0000 0.74582  0.20535  0.26984  Biso   1.000  H 
  H28      1.0000 0.74587  0.79460  0.76974  Biso   1.000  H 
  H29      1.0000 0.87027  0.67436  0.23329  Biso   1.000  H 
  H30      1.0000 0.67674  0.86353  0.76947  Biso   1.000  H 
  H31      1.0000 0.80092  0.74305  0.23375  Biso   1.000  H 
  H32      1.0000 0.14143  0.32838  0.23059  Biso   1.000  H 
  H33      1.0000 0.41783  0.08954  0.21761  Biso   1.000  H 
  H34      1.0000 0.41695  0.91252  0.28169  Biso   1.000  H 
  H35      1.0000 0.83309  0.63537  0.76680  Biso   1.000  H 
  H36      1.0000 0.59187  0.91023  0.78173  Biso   1.000  H 
  H37      1.0000 0.41796  0.91038  0.71769  Biso   1.000  H 
  H38      1.0000 0.09187  0.41023  0.78172  Biso   1.000  H 
  H39      1.0000 0.83301  0.36462  0.26682  Biso   1.000  H 
  H40      1.0000 0.37027  0.17436  0.23332  Biso   1.000  H 
  H41      1.0000 0.91784  0.58955  0.21759  Biso   1.000  H 
  H42      1.0000 0.21095  0.74023  0.73094  Biso   1.000  H 
  H43      1.0000 0.26411  0.20441  0.76717  Biso   1.000  H 
  H44      1.0000 0.30092  0.24306  0.23379  Biso   1.000  H 
  H45      1.0000 0.76411  0.70440  0.76714  Biso   1.000  H 
  H46      1.0000 0.59413  0.91347  0.21785  Biso   1.000  H 
  H47      1.0000 0.33309  0.13537  0.76682  Biso   1.000  H 
  H48      1.0000 0.14148  0.67164  0.73051  Biso   1.000  H 
  N1       1.0000 0.55066  0.95486  0.41020  Biso   1.000  N 
  N2       1.0000 0.95957  0.45471  0.08904  Biso   1.000  N 
  N3       1.0000 0.45963  0.04534  0.58901  Biso   1.000  N 
  N4       1.0000 0.96006  0.54613  0.40993  Biso   1.000  N 
  N5       1.0000 0.05071  0.54512  0.91016  Biso   1.000  N 
  N6       1.0000 0.95963  0.54534  0.58899  Biso   1.000  N 
  N7       1.0000 0.46005  0.04612  0.40995  Biso   1.000  N 
  N8       1.0000 0.55016  0.95405  0.58921  Biso   1.000  N 
  N9       1.0000 0.46008  0.95386  0.91000  Biso   1.000  N 
  N10      1.0000 0.05014  0.54595  0.08916  Biso   1.000  N 
  N11      1.0000 0.96008  0.45386  0.90998  Biso   1.000  N 
  N12      1.0000 0.45957  0.95471  0.08905  Biso   1.000  N 
  N13      1.0000 0.55071  0.04512  0.91018  Biso   1.000  N 
  N14      1.0000 0.05016  0.45405  0.58920  Biso   1.000  N 
  N15      1.0000 0.05066  0.45486  0.41019  Biso   1.000  N 
  N16      1.0000 0.55013  0.04595  0.08918  Biso   1.000  N 
  Zn1      1.0000 0.50508  0.00040  0.24957  Biso   1.000  Zn
  Zn2      1.0000 0.00508  0.50040  0.24955  Biso   1.000  Zn
  Zn3      1.0000 0.50513  0.99960  0.74957  Biso   1.000  Zn
  Zn4      1.0000 0.00513  0.49960  0.74956  Biso   1.000  Zn
