data_image0
_cell_length_a       31.3288
_cell_length_b       16.0764
_cell_length_c       7.18736
_cell_angle_alpha    89.9951
_cell_angle_beta     90.1282
_cell_angle_gamma    90

_symmetry_space_group_name_H-M    "P 1"
_symmetry_int_tables_number       1

loop_
  _symmetry_equiv_pos_as_xyz
  'x, y, z'

loop_
  _atom_site_label
  _atom_site_occupancy
  _atom_site_fract_x
  _atom_site_fract_y
  _atom_site_fract_z
  _atom_site_thermal_displace_type
  _atom_site_B_iso_or_equiv
  _atom_site_type_symbol
  C1       1.0000 0.86062  0.33789  0.00045  Biso   1.000  C 
  C2       1.0000 0.40312  0.87532  0.00006  Biso   1.000  C 
  C3       1.0000 0.20767  0.26508  0.34017  Biso   1.000  C 
  C4       1.0000 0.29395  0.80665  0.16008  Biso   1.000  C 
  C5       1.0000 0.27693  0.76846  0.00015  Biso   1.000  C 
  C6       1.0000 0.08234  0.60212  0.15284  Biso   1.000  C 
  C7       1.0000 0.92797  0.39921  0.84640  Biso   1.000  C 
  C8       1.0000 0.10755  0.62522  0.99978  Biso   1.000  C 
  C9       1.0000 0.77693  0.73154  0.50015  Biso   1.000  C 
  C10      1.0000 0.79396  0.69335  0.66009  Biso   1.000  C 
  C11      1.0000 0.83472  0.65919  0.66010  Biso   1.000  C 
  C12      1.0000 0.86062  0.66209  0.50045  Biso   1.000  C 
  C13      1.0000 0.34370  0.20067  0.34079  Biso   1.000  C 
  C14      1.0000 0.30279  0.23426  0.34049  Biso   1.000  C 
  C15      1.0000 0.30279  0.76575  0.84048  Biso   1.000  C 
  C16      1.0000 0.34370  0.79934  0.84078  Biso   1.000  C 
  C17      1.0000 0.90313  0.62468  0.50003  Biso   1.000  C 
  C18      1.0000 0.42797  0.10079  0.34643  Biso   1.000  C 
  C19      1.0000 0.33472  0.84081  0.16010  Biso   1.000  C 
  C20      1.0000 0.79395  0.30665  0.16007  Biso   1.000  C 
  C21      1.0000 0.36062  0.83790  0.00046  Biso   1.000  C 
  C22      1.0000 0.80279  0.26574  0.84048  Biso   1.000  C 
  C23      1.0000 0.92824  0.60058  0.65316  Biso   1.000  C 
  C24      1.0000 0.73360  0.76731  0.50018  Biso   1.000  C 
  C25      1.0000 0.71666  0.80507  0.66044  Biso   1.000  C 
  C26      1.0000 0.67592  0.83937  0.66041  Biso   1.000  C 
  C27      1.0000 0.17592  0.33937  0.66043  Biso   1.000  C 
  C28      1.0000 0.16679  0.29882  0.34041  Biso   1.000  C 
  C29      1.0000 0.70767  0.76507  0.34018  Biso   1.000  C 
  C30      1.0000 0.66679  0.79880  0.34041  Biso   1.000  C 
  C31      1.0000 0.21666  0.30508  0.66046  Biso   1.000  C 
  C32      1.0000 0.83472  0.34080  0.16008  Biso   1.000  C 
  C33      1.0000 0.58235  0.89788  0.65285  Biso   1.000  C 
  C34      1.0000 0.23360  0.26732  0.50019  Biso   1.000  C 
  C35      1.0000 0.42824  0.10058  0.65319  Biso   1.000  C 
  C36      1.0000 0.16679  0.70120  0.84041  Biso   1.000  C 
  C37      1.0000 0.14998  0.33706  0.50038  Biso   1.000  C 
  C38      1.0000 0.40313  0.12469  0.50006  Biso   1.000  C 
  C39      1.0000 0.60755  0.87479  0.49978  Biso   1.000  C 
  C40      1.0000 0.84370  0.29933  0.84077  Biso   1.000  C 
  C41      1.0000 0.77693  0.26845  0.00015  Biso   1.000  C 
  C42      1.0000 0.08293  0.40004  0.34611  Biso   1.000  C 
  C43      1.0000 0.92824  0.39939  0.15316  Biso   1.000  C 
  C44      1.0000 0.80279  0.73424  0.34046  Biso   1.000  C 
  C45      1.0000 0.14998  0.66295  0.00038  Biso   1.000  C 
  C46      1.0000 0.84370  0.70065  0.34075  Biso   1.000  C 
  C47      1.0000 0.36062  0.16211  0.50048  Biso   1.000  C 
  C48      1.0000 0.23359  0.73269  0.00019  Biso   1.000  C 
  C49      1.0000 0.42823  0.89943  0.15319  Biso   1.000  C 
  C50      1.0000 0.58234  0.10213  0.15284  Biso   1.000  C 
  C51      1.0000 0.58293  0.90004  0.34612  Biso   1.000  C 
  C52      1.0000 0.64998  0.83706  0.50037  Biso   1.000  C 
  C53      1.0000 0.33472  0.15919  0.66011  Biso   1.000  C 
  C54      1.0000 0.29395  0.19336  0.66010  Biso   1.000  C 
  C55      1.0000 0.21666  0.69493  0.16046  Biso   1.000  C 
  C56      1.0000 0.08293  0.59996  0.84611  Biso   1.000  C 
  C57      1.0000 0.27693  0.23155  0.50016  Biso   1.000  C 
  C58      1.0000 0.17592  0.66063  0.16043  Biso   1.000  C 
  C59      1.0000 0.90313  0.37530  0.00003  Biso   1.000  C 
  C60      1.0000 0.08235  0.39789  0.65284  Biso   1.000  C 
  C61      1.0000 0.71665  0.19493  0.16046  Biso   1.000  C 
  C62      1.0000 0.67592  0.16063  0.16043  Biso   1.000  C 
  C63      1.0000 0.64998  0.16295  0.00038  Biso   1.000  C 
  C64      1.0000 0.70767  0.23493  0.84016  Biso   1.000  C 
  C65      1.0000 0.20767  0.73493  0.84016  Biso   1.000  C 
  C66      1.0000 0.92797  0.60077  0.34640  Biso   1.000  C 
  C67      1.0000 0.10756  0.37479  0.49978  Biso   1.000  C 
  C68      1.0000 0.66679  0.20119  0.84040  Biso   1.000  C 
  C69      1.0000 0.58293  0.09995  0.84611  Biso   1.000  C 
  C70      1.0000 0.73360  0.23269  0.00018  Biso   1.000  C 
  C71      1.0000 0.60755  0.12522  0.99978  Biso   1.000  C 
  C72      1.0000 0.42798  0.89920  0.84643  Biso   1.000  C 
  H1       1.0000 0.42093  0.89470  0.69882  Biso   1.000  H 
  H2       1.0000 0.73631  0.80992  0.78549  Biso   1.000  H 
  H3       1.0000 0.86319  0.70571  0.21561  Biso   1.000  H 
  H4       1.0000 0.66442  0.87052  0.78554  Biso   1.000  H 
  H5       1.0000 0.79101  0.76522  0.21539  Biso   1.000  H 
  H6       1.0000 0.14722  0.29411  0.21503  Biso   1.000  H 
  H7       1.0000 0.42092  0.10529  0.19883  Biso   1.000  H 
  H8       1.0000 0.42190  0.89338  0.30102  Biso   1.000  H 
  H9       1.0000 0.84629  0.62775  0.78497  Biso   1.000  H 
  H10      1.0000 0.58851  0.89066  0.80066  Biso   1.000  H 
  H11      1.0000 0.84629  0.37225  0.28495  Biso   1.000  H 
  H12      1.0000 0.08851  0.39067  0.80066  Biso   1.000  H 
  H13      1.0000 0.34629  0.12774  0.78499  Biso   1.000  H 
  H14      1.0000 0.59013  0.89665  0.19865  Biso   1.000  H 
  H15      1.0000 0.77435  0.68808  0.78481  Biso   1.000  H 
  H16      1.0000 0.29102  0.26524  0.21543  Biso   1.000  H 
  H17      1.0000 0.58850  0.10937  0.30065  Biso   1.000  H 
  H18      1.0000 0.14722  0.70591  0.71502  Biso   1.000  H 
  H19      1.0000 0.21936  0.76565  0.71485  Biso   1.000  H 
  H20      1.0000 0.92091  0.60526  0.19880  Biso   1.000  H 
  H21      1.0000 0.36319  0.20574  0.21565  Biso   1.000  H 
  H22      1.0000 0.27435  0.18808  0.78482  Biso   1.000  H 
  H23      1.0000 0.21936  0.23437  0.21486  Biso   1.000  H 
  H24      1.0000 0.73630  0.19009  0.28551  Biso   1.000  H 
  H25      1.0000 0.92192  0.39331  0.30099  Biso   1.000  H 
  H26      1.0000 0.66441  0.12949  0.28556  Biso   1.000  H 
  H27      1.0000 0.16442  0.37052  0.78554  Biso   1.000  H 
  H28      1.0000 0.64722  0.20591  0.71502  Biso   1.000  H 
  H29      1.0000 0.29102  0.73477  0.71544  Biso   1.000  H 
  H30      1.0000 0.23630  0.69009  0.28551  Biso   1.000  H 
  H31      1.0000 0.77435  0.31192  0.28479  Biso   1.000  H 
  H32      1.0000 0.71936  0.26565  0.71485  Biso   1.000  H 
  H33      1.0000 0.92092  0.39473  0.69880  Biso   1.000  H 
  H34      1.0000 0.09014  0.60335  0.69864  Biso   1.000  H 
  H35      1.0000 0.08850  0.60935  0.30065  Biso   1.000  H 
  H36      1.0000 0.34628  0.87225  0.28496  Biso   1.000  H 
  H37      1.0000 0.36319  0.79427  0.71565  Biso   1.000  H 
  H38      1.0000 0.92193  0.60666  0.80099  Biso   1.000  H 
  H39      1.0000 0.16441  0.62949  0.28555  Biso   1.000  H 
  H40      1.0000 0.27435  0.81192  0.28480  Biso   1.000  H 
  H41      1.0000 0.23631  0.30992  0.78550  Biso   1.000  H 
  H42      1.0000 0.71936  0.73434  0.21487  Biso   1.000  H 
  H43      1.0000 0.09013  0.39665  0.19864  Biso   1.000  H 
  H44      1.0000 0.79102  0.23477  0.71542  Biso   1.000  H 
  H45      1.0000 0.86320  0.29426  0.71563  Biso   1.000  H 
  H46      1.0000 0.59014  0.10333  0.69865  Biso   1.000  H 
  H47      1.0000 0.42192  0.10664  0.80102  Biso   1.000  H 
  H48      1.0000 0.64722  0.79409  0.21504  Biso   1.000  H 
  N1       1.0000 0.04632  0.43544  0.40423  Biso   1.000  N 
  N2       1.0000 0.04591  0.43393  0.59392  Biso   1.000  N 
  N3       1.0000 0.54632  0.06455  0.90423  Biso   1.000  N 
  N4       1.0000 0.46479  0.93478  0.09434  Biso   1.000  N 
  N5       1.0000 0.46460  0.93477  0.90461  Biso   1.000  N 
  N6       1.0000 0.96460  0.43478  0.90457  Biso   1.000  N 
  N7       1.0000 0.04590  0.56607  0.09391  Biso   1.000  N 
  N8       1.0000 0.54590  0.06608  0.09392  Biso   1.000  N 
  N9       1.0000 0.54591  0.93393  0.59393  Biso   1.000  N 
  N10      1.0000 0.54632  0.93544  0.40424  Biso   1.000  N 
  N11      1.0000 0.46459  0.06522  0.40460  Biso   1.000  N 
  N12      1.0000 0.96480  0.56522  0.59430  Biso   1.000  N 
  N13      1.0000 0.04632  0.56456  0.90422  Biso   1.000  N 
  N14      1.0000 0.96459  0.56520  0.40457  Biso   1.000  N 
  N15      1.0000 0.46480  0.06522  0.59433  Biso   1.000  N 
  N16      1.0000 0.96480  0.43476  0.09431  Biso   1.000  N 
  Zn1      1.0000 0.00543  0.50052  0.24924  Biso   1.000  Zn
  Zn2      1.0000 0.50543  0.99947  0.74926  Biso   1.000  Zn
  Zn3      1.0000 0.50543  0.00052  0.24925  Biso   1.000  Zn
  Zn4      1.0000 0.00544  0.49948  0.74925  Biso   1.000  Zn
