data_image0
_cell_length_a       30.6822
_cell_length_b       17.3887
_cell_length_c       7.19899
_cell_angle_alpha    89.9973
_cell_angle_beta     90.0707
_cell_angle_gamma    89.9998

_symmetry_space_group_name_H-M    "P 1"
_symmetry_int_tables_number       1

loop_
  _symmetry_equiv_pos_as_xyz
  'x, y, z'

loop_
  _atom_site_label
  _atom_site_occupancy
  _atom_site_fract_x
  _atom_site_fract_y
  _atom_site_fract_z
  _atom_site_thermal_displace_type
  _atom_site_B_iso_or_equiv
  _atom_site_type_symbol
  C1       1.0000 0.86018  0.34162  0.00025  Biso   1.000  C 
  C2       1.0000 0.58341  0.90432  0.34689  Biso   1.000  C 
  C3       1.0000 0.58296  0.09721  0.15316  Biso   1.000  C 
  C4       1.0000 0.42763  0.90388  0.15329  Biso   1.000  C 
  C5       1.0000 0.23369  0.73181  0.99971  Biso   1.000  C 
  C6       1.0000 0.21748  0.69533  0.15982  Biso   1.000  C 
  C7       1.0000 0.36018  0.15838  0.50026  Biso   1.000  C 
  C8       1.0000 0.33370  0.15854  0.65973  Biso   1.000  C 
  C9       1.0000 0.84399  0.69529  0.34047  Biso   1.000  C 
  C10      1.0000 0.80324  0.73033  0.34001  Biso   1.000  C 
  C11      1.0000 0.92764  0.40385  0.15328  Biso   1.000  C 
  C12      1.0000 0.08342  0.40433  0.34691  Biso   1.000  C 
  C13      1.0000 0.77682  0.26925  0.99966  Biso   1.000  C 
  C14      1.0000 0.84399  0.30469  0.84051  Biso   1.000  C 
  C15      1.0000 0.60811  0.87938  0.50009  Biso   1.000  C 
  C16      1.0000 0.15043  0.65919  0.00023  Biso   1.000  C 
  C17      1.0000 0.29310  0.19405  0.65956  Biso   1.000  C 
  C18      1.0000 0.17692  0.65966  0.15993  Biso   1.000  C 
  C19      1.0000 0.08342  0.59567  0.84690  Biso   1.000  C 
  C20      1.0000 0.60811  0.12062  0.00012  Biso   1.000  C 
  C21      1.0000 0.42745  0.90401  0.84701  Biso   1.000  C 
  C22      1.0000 0.58342  0.09566  0.84692  Biso   1.000  C 
  C23      1.0000 0.66653  0.19597  0.84034  Biso   1.000  C 
  C24      1.0000 0.10811  0.37938  0.50011  Biso   1.000  C 
  C25      1.0000 0.92744  0.59596  0.34699  Biso   1.000  C 
  C26      1.0000 0.20724  0.73114  0.83993  Biso   1.000  C 
  C27      1.0000 0.73370  0.23180  0.99973  Biso   1.000  C 
  C28      1.0000 0.65043  0.15918  0.00025  Biso   1.000  C 
  C29      1.0000 0.67693  0.15965  0.15996  Biso   1.000  C 
  C30      1.0000 0.71748  0.19532  0.15985  Biso   1.000  C 
  C31      1.0000 0.70724  0.23113  0.83995  Biso   1.000  C 
  C32      1.0000 0.08297  0.40280  0.65315  Biso   1.000  C 
  C33      1.0000 0.90257  0.37992  0.00021  Biso   1.000  C 
  C34      1.0000 0.27682  0.23075  0.49967  Biso   1.000  C 
  C35      1.0000 0.40257  0.12008  0.50022  Biso   1.000  C 
  C36      1.0000 0.65043  0.84082  0.50022  Biso   1.000  C 
  C37      1.0000 0.16653  0.69598  0.84032  Biso   1.000  C 
  C38      1.0000 0.42764  0.09614  0.65329  Biso   1.000  C 
  C39      1.0000 0.30325  0.76966  0.84004  Biso   1.000  C 
  C40      1.0000 0.30325  0.23035  0.34006  Biso   1.000  C 
  C41      1.0000 0.34400  0.19531  0.34052  Biso   1.000  C 
  C42      1.0000 0.86018  0.65837  0.50023  Biso   1.000  C 
  C43      1.0000 0.83370  0.65853  0.65969  Biso   1.000  C 
  C44      1.0000 0.79310  0.69405  0.65952  Biso   1.000  C 
  C45      1.0000 0.34400  0.80470  0.84051  Biso   1.000  C 
  C46      1.0000 0.77682  0.73074  0.49962  Biso   1.000  C 
  C47      1.0000 0.92744  0.40403  0.84701  Biso   1.000  C 
  C48      1.0000 0.08296  0.59720  0.15314  Biso   1.000  C 
  C49      1.0000 0.27682  0.76925  0.99965  Biso   1.000  C 
  C50      1.0000 0.29310  0.80595  0.15954  Biso   1.000  C 
  C51      1.0000 0.20724  0.26887  0.33996  Biso   1.000  C 
  C52      1.0000 0.40257  0.87993  0.00021  Biso   1.000  C 
  C53      1.0000 0.10811  0.62063  0.00010  Biso   1.000  C 
  C54      1.0000 0.90257  0.62007  0.50019  Biso   1.000  C 
  C55      1.0000 0.42744  0.09598  0.34702  Biso   1.000  C 
  C56      1.0000 0.33369  0.84147  0.15970  Biso   1.000  C 
  C57      1.0000 0.23370  0.26820  0.49974  Biso   1.000  C 
  C58      1.0000 0.58297  0.90280  0.65314  Biso   1.000  C 
  C59      1.0000 0.83369  0.34146  0.15971  Biso   1.000  C 
  C60      1.0000 0.21748  0.30468  0.65985  Biso   1.000  C 
  C61      1.0000 0.66653  0.80403  0.34031  Biso   1.000  C 
  C62      1.0000 0.70724  0.76886  0.33992  Biso   1.000  C 
  C63      1.0000 0.16654  0.30404  0.34034  Biso   1.000  C 
  C64      1.0000 0.17693  0.34035  0.65995  Biso   1.000  C 
  C65      1.0000 0.67693  0.84034  0.65992  Biso   1.000  C 
  C66      1.0000 0.71748  0.80467  0.65979  Biso   1.000  C 
  C67      1.0000 0.73369  0.76819  0.49969  Biso   1.000  C 
  C68      1.0000 0.92764  0.59614  0.65327  Biso   1.000  C 
  C69      1.0000 0.80325  0.26965  0.84006  Biso   1.000  C 
  C70      1.0000 0.15043  0.34082  0.50025  Biso   1.000  C 
  C71      1.0000 0.36018  0.84163  0.00025  Biso   1.000  C 
  C72      1.0000 0.79310  0.30594  0.15954  Biso   1.000  C 
  H1       1.0000 0.36401  0.80210  0.71546  Biso   1.000  H 
  H2       1.0000 0.64651  0.19831  0.71510  Biso   1.000  H 
  H3       1.0000 0.29213  0.74015  0.71489  Biso   1.000  H 
  H4       1.0000 0.23760  0.69287  0.28471  Biso   1.000  H 
  H5       1.0000 0.77298  0.30865  0.28422  Biso   1.000  H 
  H6       1.0000 0.71832  0.26051  0.71470  Biso   1.000  H 
  H7       1.0000 0.92040  0.39950  0.69959  Biso   1.000  H 
  H8       1.0000 0.09057  0.59957  0.69955  Biso   1.000  H 
  H9       1.0000 0.08915  0.60422  0.30070  Biso   1.000  H 
  H10      1.0000 0.34462  0.87129  0.28472  Biso   1.000  H 
  H11      1.0000 0.16605  0.62991  0.28503  Biso   1.000  H 
  H12      1.0000 0.92129  0.60242  0.80081  Biso   1.000  H 
  H13      1.0000 0.42129  0.10242  0.80084  Biso   1.000  H 
  H14      1.0000 0.59057  0.09956  0.69957  Biso   1.000  H 
  H15      1.0000 0.86400  0.30209  0.71546  Biso   1.000  H 
  H16      1.0000 0.79213  0.24014  0.71491  Biso   1.000  H 
  H17      1.0000 0.92129  0.39757  0.30083  Biso   1.000  H 
  H18      1.0000 0.64650  0.80168  0.21508  Biso   1.000  H 
  H19      1.0000 0.71831  0.73948  0.21466  Biso   1.000  H 
  H20      1.0000 0.23761  0.30713  0.78474  Biso   1.000  H 
  H21      1.0000 0.27298  0.80865  0.28420  Biso   1.000  H 
  H22      1.0000 0.09057  0.40043  0.19956  Biso   1.000  H 
  H23      1.0000 0.66605  0.12990  0.28505  Biso   1.000  H 
  H24      1.0000 0.16606  0.37010  0.78504  Biso   1.000  H 
  H25      1.0000 0.73761  0.19286  0.28473  Biso   1.000  H 
  H26      1.0000 0.27299  0.19135  0.78423  Biso   1.000  H 
  H27      1.0000 0.42127  0.89763  0.30083  Biso   1.000  H 
  H28      1.0000 0.14651  0.30169  0.21511  Biso   1.000  H 
  H29      1.0000 0.66606  0.87009  0.78501  Biso   1.000  H 
  H30      1.0000 0.79212  0.75984  0.21485  Biso   1.000  H 
  H31      1.0000 0.84462  0.62871  0.78471  Biso   1.000  H 
  H32      1.0000 0.86400  0.69788  0.21541  Biso   1.000  H 
  H33      1.0000 0.73761  0.80713  0.78467  Biso   1.000  H 
  H34      1.0000 0.42042  0.89947  0.69959  Biso   1.000  H 
  H35      1.0000 0.42041  0.10052  0.19960  Biso   1.000  H 
  H36      1.0000 0.58916  0.89579  0.80069  Biso   1.000  H 
  H37      1.0000 0.21832  0.23949  0.21471  Biso   1.000  H 
  H38      1.0000 0.08916  0.39579  0.80071  Biso   1.000  H 
  H39      1.0000 0.34462  0.12871  0.78474  Biso   1.000  H 
  H40      1.0000 0.59056  0.90041  0.19955  Biso   1.000  H 
  H41      1.0000 0.77299  0.69135  0.78419  Biso   1.000  H 
  H42      1.0000 0.29213  0.25986  0.21491  Biso   1.000  H 
  H43      1.0000 0.58915  0.10424  0.30072  Biso   1.000  H 
  H44      1.0000 0.84462  0.37129  0.28472  Biso   1.000  H 
  H45      1.0000 0.14651  0.69833  0.71508  Biso   1.000  H 
  H46      1.0000 0.21832  0.76052  0.71468  Biso   1.000  H 
  H47      1.0000 0.92040  0.60050  0.19958  Biso   1.000  H 
  H48      1.0000 0.36400  0.19791  0.21547  Biso   1.000  H 
  N1       1.0000 0.46424  0.06087  0.59476  Biso   1.000  N 
  N2       1.0000 0.96407  0.56063  0.40533  Biso   1.000  N 
  N3       1.0000 0.04683  0.56033  0.90519  Biso   1.000  N 
  N4       1.0000 0.96424  0.56086  0.59474  Biso   1.000  N 
  N5       1.0000 0.54649  0.93859  0.59459  Biso   1.000  N 
  N6       1.0000 0.46407  0.06064  0.40535  Biso   1.000  N 
  N7       1.0000 0.54682  0.93966  0.40519  Biso   1.000  N 
  N8       1.0000 0.96424  0.43912  0.09475  Biso   1.000  N 
  N9       1.0000 0.54648  0.06142  0.09460  Biso   1.000  N 
  N10      1.0000 0.04683  0.43966  0.40520  Biso   1.000  N 
  N11      1.0000 0.04648  0.56141  0.09458  Biso   1.000  N 
  N12      1.0000 0.96407  0.43936  0.90534  Biso   1.000  N 
  N13      1.0000 0.46407  0.93935  0.90535  Biso   1.000  N 
  N14      1.0000 0.46423  0.93915  0.09476  Biso   1.000  N 
  N15      1.0000 0.54683  0.06033  0.90521  Biso   1.000  N 
  N16      1.0000 0.04649  0.43858  0.59459  Biso   1.000  N 
  Zn1      1.0000 0.50543  0.99974  0.74992  Biso   1.000  Zn
  Zn2      1.0000 0.50543  0.00025  0.24995  Biso   1.000  Zn
  Zn3      1.0000 0.00543  0.50024  0.24992  Biso   1.000  Zn
  Zn4      1.0000 0.00544  0.49975  0.74993  Biso   1.000  Zn
