data_image0
_cell_length_a       31.8835
_cell_length_b       14.7873
_cell_length_c       7.20035
_cell_angle_alpha    89.9953
_cell_angle_beta     90.0867
_cell_angle_gamma    90.0001

_symmetry_space_group_name_H-M    "P 1"
_symmetry_int_tables_number       1

loop_
  _symmetry_equiv_pos_as_xyz
  'x, y, z'

loop_
  _atom_site_label
  _atom_site_occupancy
  _atom_site_fract_x
  _atom_site_fract_y
  _atom_site_fract_z
  _atom_site_thermal_displace_type
  _atom_site_B_iso_or_equiv
  _atom_site_type_symbol
  C1       1.0000 0.86107  0.33293  0.00052  Biso   1.000  C 
  C2       1.0000 0.64955  0.83219  0.50063  Biso   1.000  C 
  C3       1.0000 0.58242  0.89453  0.34613  Biso   1.000  C 
  C4       1.0000 0.58171  0.10800  0.15224  Biso   1.000  C 
  C5       1.0000 0.42877  0.89363  0.15246  Biso   1.000  C 
  C6       1.0000 0.23351  0.73377  0.00054  Biso   1.000  C 
  C7       1.0000 0.36107  0.16706  0.50050  Biso   1.000  C 
  C8       1.0000 0.33568  0.16044  0.65968  Biso   1.000  C 
  C9       1.0000 0.84350  0.70746  0.34145  Biso   1.000  C 
  C10      1.0000 0.80243  0.73916  0.34130  Biso   1.000  C 
  C11      1.0000 0.92877  0.39362  0.15247  Biso   1.000  C 
  C12      1.0000 0.08242  0.39453  0.34616  Biso   1.000  C 
  C13      1.0000 0.77705  0.26735  0.00048  Biso   1.000  C 
  C14      1.0000 0.84350  0.29252  0.84151  Biso   1.000  C 
  C15      1.0000 0.60699  0.86893  0.49966  Biso   1.000  C 
  C16      1.0000 0.14955  0.66781  0.00064  Biso   1.000  C 
  C17      1.0000 0.29475  0.19284  0.65983  Biso   1.000  C 
  C18      1.0000 0.21584  0.69463  0.16043  Biso   1.000  C 
  C19      1.0000 0.08242  0.60547  0.84614  Biso   1.000  C 
  C20      1.0000 0.42851  0.89341  0.84629  Biso   1.000  C 
  C21      1.0000 0.60699  0.13107  0.99967  Biso   1.000  C 
  C22      1.0000 0.58242  0.10547  0.84614  Biso   1.000  C 
  C23      1.0000 0.66708  0.20766  0.84119  Biso   1.000  C 
  C24      1.0000 0.10700  0.36894  0.49969  Biso   1.000  C 
  C25      1.0000 0.92850  0.60657  0.34628  Biso   1.000  C 
  C26      1.0000 0.20812  0.73953  0.84097  Biso   1.000  C 
  C27      1.0000 0.70812  0.23952  0.84100  Biso   1.000  C 
  C28      1.0000 0.64955  0.16781  0.00065  Biso   1.000  C 
  C29      1.0000 0.67493  0.16206  0.16035  Biso   1.000  C 
  C30      1.0000 0.71584  0.19463  0.16046  Biso   1.000  C 
  C31      1.0000 0.08172  0.39202  0.65227  Biso   1.000  C 
  C32      1.0000 0.90368  0.36934  0.99972  Biso   1.000  C 
  C33      1.0000 0.17493  0.66206  0.16034  Biso   1.000  C 
  C34      1.0000 0.27705  0.23265  0.50046  Biso   1.000  C 
  C35      1.0000 0.40368  0.13066  0.49970  Biso   1.000  C 
  C36      1.0000 0.14955  0.33220  0.50066  Biso   1.000  C 
  C37      1.0000 0.73351  0.23377  0.00056  Biso   1.000  C 
  C38      1.0000 0.42877  0.10637  0.65245  Biso   1.000  C 
  C39      1.0000 0.30243  0.76083  0.84132  Biso   1.000  C 
  C40      1.0000 0.30243  0.23918  0.34133  Biso   1.000  C 
  C41      1.0000 0.34350  0.20748  0.34148  Biso   1.000  C 
  C42      1.0000 0.86107  0.66706  0.50048  Biso   1.000  C 
  C43      1.0000 0.83568  0.66044  0.65967  Biso   1.000  C 
  C44      1.0000 0.79475  0.69284  0.65982  Biso   1.000  C 
  C45      1.0000 0.34350  0.79253  0.84147  Biso   1.000  C 
  C46      1.0000 0.77705  0.73264  0.50044  Biso   1.000  C 
  C47      1.0000 0.92851  0.39341  0.84631  Biso   1.000  C 
  C48      1.0000 0.27705  0.76735  0.00044  Biso   1.000  C 
  C49      1.0000 0.29475  0.80716  0.15981  Biso   1.000  C 
  C50      1.0000 0.20812  0.26048  0.34099  Biso   1.000  C 
  C51      1.0000 0.40368  0.86934  0.99970  Biso   1.000  C 
  C52      1.0000 0.16707  0.70767  0.84118  Biso   1.000  C 
  C53      1.0000 0.10699  0.63107  0.99966  Biso   1.000  C 
  C54      1.0000 0.90368  0.63065  0.49969  Biso   1.000  C 
  C55      1.0000 0.08171  0.60799  0.15224  Biso   1.000  C 
  C56      1.0000 0.33567  0.83956  0.15965  Biso   1.000  C 
  C57      1.0000 0.23351  0.26624  0.50054  Biso   1.000  C 
  C58      1.0000 0.42850  0.10658  0.34628  Biso   1.000  C 
  C59      1.0000 0.58172  0.89201  0.65224  Biso   1.000  C 
  C60      1.0000 0.83567  0.33955  0.15969  Biso   1.000  C 
  C61      1.0000 0.66707  0.79232  0.34118  Biso   1.000  C 
  C62      1.0000 0.70811  0.76046  0.34097  Biso   1.000  C 
  C63      1.0000 0.16707  0.29234  0.34121  Biso   1.000  C 
  C64      1.0000 0.21584  0.30539  0.66043  Biso   1.000  C 
  C65      1.0000 0.67494  0.83794  0.66031  Biso   1.000  C 
  C66      1.0000 0.71584  0.80538  0.66040  Biso   1.000  C 
  C67      1.0000 0.73351  0.76623  0.50052  Biso   1.000  C 
  C68      1.0000 0.92877  0.60637  0.65245  Biso   1.000  C 
  C69      1.0000 0.80243  0.26082  0.84135  Biso   1.000  C 
  C70      1.0000 0.17494  0.33795  0.66034  Biso   1.000  C 
  C71      1.0000 0.79475  0.30716  0.15984  Biso   1.000  C 
  C72      1.0000 0.36107  0.83294  0.00049  Biso   1.000  C 
  H1       1.0000 0.08966  0.60857  0.69900  Biso   1.000  H 
  H2       1.0000 0.92150  0.38902  0.69899  Biso   1.000  H 
  H3       1.0000 0.72045  0.27171  0.71611  Biso   1.000  H 
  H4       1.0000 0.29009  0.72813  0.71689  Biso   1.000  H 
  H5       1.0000 0.23499  0.68697  0.28514  Biso   1.000  H 
  H6       1.0000 0.64802  0.21513  0.71612  Biso   1.000  H 
  H7       1.0000 0.08784  0.61555  0.29979  Biso   1.000  H 
  H8       1.0000 0.16285  0.37082  0.78495  Biso   1.000  H 
  H9       1.0000 0.77561  0.31541  0.28416  Biso   1.000  H 
  H10      1.0000 0.34780  0.87286  0.28386  Biso   1.000  H 
  H11      1.0000 0.79008  0.22813  0.71692  Biso   1.000  H 
  H12      1.0000 0.92241  0.61252  0.79999  Biso   1.000  H 
  H13      1.0000 0.16284  0.62919  0.28495  Biso   1.000  H 
  H14      1.0000 0.27561  0.81541  0.28413  Biso   1.000  H 
  H15      1.0000 0.23499  0.31303  0.78512  Biso   1.000  H 
  H16      1.0000 0.72043  0.72826  0.21612  Biso   1.000  H 
  H17      1.0000 0.08966  0.39143  0.19901  Biso   1.000  H 
  H18      1.0000 0.86255  0.28446  0.71680  Biso   1.000  H 
  H19      1.0000 0.58967  0.10856  0.69900  Biso   1.000  H 
  H20      1.0000 0.42242  0.11252  0.79999  Biso   1.000  H 
  H21      1.0000 0.64801  0.78485  0.21612  Biso   1.000  H 
  H22      1.0000 0.66284  0.12919  0.28497  Biso   1.000  H 
  H23      1.0000 0.36255  0.78447  0.71677  Biso   1.000  H 
  H24      1.0000 0.92241  0.38748  0.30002  Biso   1.000  H 
  H25      1.0000 0.58784  0.11554  0.29979  Biso   1.000  H 
  H26      1.0000 0.22044  0.22829  0.21613  Biso   1.000  H 
  H27      1.0000 0.73498  0.18698  0.28517  Biso   1.000  H 
  H28      1.0000 0.73499  0.81303  0.78511  Biso   1.000  H 
  H29      1.0000 0.86254  0.71551  0.21673  Biso   1.000  H 
  H30      1.0000 0.66285  0.87082  0.78491  Biso   1.000  H 
  H31      1.0000 0.79008  0.77184  0.21685  Biso   1.000  H 
  H32      1.0000 0.14801  0.28487  0.21614  Biso   1.000  H 
  H33      1.0000 0.42149  0.11097  0.19896  Biso   1.000  H 
  H34      1.0000 0.42241  0.88749  0.30000  Biso   1.000  H 
  H35      1.0000 0.84780  0.62715  0.78388  Biso   1.000  H 
  H36      1.0000 0.58785  0.88447  0.79979  Biso   1.000  H 
  H37      1.0000 0.42150  0.88903  0.69896  Biso   1.000  H 
  H38      1.0000 0.08785  0.38448  0.79982  Biso   1.000  H 
  H39      1.0000 0.84780  0.37286  0.28389  Biso   1.000  H 
  H40      1.0000 0.36255  0.21554  0.21676  Biso   1.000  H 
  H41      1.0000 0.92149  0.61096  0.19896  Biso   1.000  H 
  H42      1.0000 0.22044  0.77172  0.71610  Biso   1.000  H 
  H43      1.0000 0.27561  0.18459  0.78416  Biso   1.000  H 
  H44      1.0000 0.29008  0.27187  0.21689  Biso   1.000  H 
  H45      1.0000 0.77562  0.68460  0.78415  Biso   1.000  H 
  H46      1.0000 0.58965  0.89142  0.19899  Biso   1.000  H 
  H47      1.0000 0.34780  0.12714  0.78389  Biso   1.000  H 
  H48      1.0000 0.14801  0.71514  0.71611  Biso   1.000  H 
  N1       1.0000 0.54583  0.93042  0.40390  Biso   1.000  N 
  N2       1.0000 0.96526  0.42955  0.09369  Biso   1.000  N 
  N3       1.0000 0.46526  0.07044  0.59367  Biso   1.000  N 
  N4       1.0000 0.96506  0.57039  0.40420  Biso   1.000  N 
  N5       1.0000 0.04583  0.56958  0.90389  Biso   1.000  N 
  N6       1.0000 0.96525  0.57044  0.59367  Biso   1.000  N 
  N7       1.0000 0.46506  0.07039  0.40421  Biso   1.000  N 
  N8       1.0000 0.54535  0.92868  0.59333  Biso   1.000  N 
  N9       1.0000 0.46506  0.92961  0.90422  Biso   1.000  N 
  N10      1.0000 0.04534  0.57133  0.09333  Biso   1.000  N 
  N11      1.0000 0.96506  0.42960  0.90423  Biso   1.000  N 
  N12      1.0000 0.46526  0.92957  0.09369  Biso   1.000  N 
  N13      1.0000 0.54583  0.06958  0.90389  Biso   1.000  N 
  N14      1.0000 0.04535  0.42868  0.59334  Biso   1.000  N 
  N15      1.0000 0.04583  0.43042  0.40391  Biso   1.000  N 
  N16      1.0000 0.54534  0.07133  0.09332  Biso   1.000  N 
  Zn1      1.0000 0.50536  0.00045  0.24885  Biso   1.000  Zn
  Zn2      1.0000 0.00536  0.50044  0.24886  Biso   1.000  Zn
  Zn3      1.0000 0.50536  0.99955  0.74883  Biso   1.000  Zn
  Zn4      1.0000 0.00536  0.49956  0.74885  Biso   1.000  Zn
