data_image0
_cell_length_a       33.5742
_cell_length_b       7.4699
_cell_length_c       7.3597
_cell_angle_alpha    89.9951
_cell_angle_beta     89.9005
_cell_angle_gamma    90

_symmetry_space_group_name_H-M    "P 1"
_symmetry_int_tables_number       1

loop_
  _symmetry_equiv_pos_as_xyz
  'x, y, z'

loop_
  _atom_site_label
  _atom_site_occupancy
  _atom_site_fract_x
  _atom_site_fract_y
  _atom_site_fract_z
  _atom_site_thermal_displace_type
  _atom_site_B_iso_or_equiv
  _atom_site_type_symbol
  C1       1.0000 0.86216  0.25381  0.00523  Biso   1.000  C 
  C2       1.0000 0.07875  0.29796  0.64133  Biso   1.000  C 
  C3       1.0000 0.71177  0.30303  0.84730  Biso   1.000  C 
  C4       1.0000 0.73330  0.25147  0.00272  Biso   1.000  C 
  C5       1.0000 0.17028  0.80193  0.84608  Biso   1.000  C 
  C6       1.0000 0.40542  0.77954  0.00129  Biso   1.000  C 
  C7       1.0000 0.93018  0.30736  0.84957  Biso   1.000  C 
  C8       1.0000 0.10522  0.72061  0.99438  Biso   1.000  C 
  C9       1.0000 0.77729  0.75171  0.50395  Biso   1.000  C 
  C10      1.0000 0.79863  0.69500  0.65800  Biso   1.000  C 
  C11      1.0000 0.84001  0.69131  0.65824  Biso   1.000  C 
  C12      1.0000 0.86216  0.74620  0.50520  Biso   1.000  C 
  C13      1.0000 0.34085  0.30920  0.35350  Biso   1.000  C 
  C14      1.0000 0.29935  0.31049  0.35246  Biso   1.000  C 
  C15      1.0000 0.29935  0.68950  0.85247  Biso   1.000  C 
  C16      1.0000 0.34085  0.69079  0.85353  Biso   1.000  C 
  C17      1.0000 0.90543  0.72045  0.50128  Biso   1.000  C 
  C18      1.0000 0.21177  0.19697  0.34732  Biso   1.000  C 
  C19      1.0000 0.34001  0.80871  0.15822  Biso   1.000  C 
  C20      1.0000 0.79862  0.30500  0.15802  Biso   1.000  C 
  C21      1.0000 0.36216  0.75381  0.00520  Biso   1.000  C 
  C22      1.0000 0.79935  0.18949  0.85250  Biso   1.000  C 
  C23      1.0000 0.93083  0.68498  0.64864  Biso   1.000  C 
  C24      1.0000 0.73330  0.74853  0.50271  Biso   1.000  C 
  C25      1.0000 0.71144  0.79764  0.65827  Biso   1.000  C 
  C26      1.0000 0.67005  0.80106  0.65646  Biso   1.000  C 
  C27      1.0000 0.43018  0.19256  0.34951  Biso   1.000  C 
  C28      1.0000 0.17028  0.19808  0.34612  Biso   1.000  C 
  C29      1.0000 0.71177  0.69698  0.34730  Biso   1.000  C 
  C30      1.0000 0.67028  0.69808  0.34611  Biso   1.000  C 
  C31      1.0000 0.07875  0.70205  0.14129  Biso   1.000  C 
  C32      1.0000 0.27728  0.74831  0.00395  Biso   1.000  C 
  C33      1.0000 0.29862  0.80503  0.15799  Biso   1.000  C 
  C34      1.0000 0.23330  0.24852  0.50272  Biso   1.000  C 
  C35      1.0000 0.43084  0.18505  0.64862  Biso   1.000  C 
  C36      1.0000 0.90543  0.27955  0.00133  Biso   1.000  C 
  C37      1.0000 0.57876  0.79800  0.64132  Biso   1.000  C 
  C38      1.0000 0.40543  0.22046  0.50127  Biso   1.000  C 
  C39      1.0000 0.60523  0.77942  0.49441  Biso   1.000  C 
  C40      1.0000 0.84085  0.19079  0.85356  Biso   1.000  C 
  C41      1.0000 0.77729  0.24829  0.00397  Biso   1.000  C 
  C42      1.0000 0.08162  0.32471  0.34355  Biso   1.000  C 
  C43      1.0000 0.93083  0.31501  0.14867  Biso   1.000  C 
  C44      1.0000 0.79935  0.81051  0.35246  Biso   1.000  C 
  C45      1.0000 0.14847  0.74656  0.99965  Biso   1.000  C 
  C46      1.0000 0.84085  0.80921  0.35351  Biso   1.000  C 
  C47      1.0000 0.36216  0.24621  0.50519  Biso   1.000  C 
  C48      1.0000 0.64848  0.75347  0.49966  Biso   1.000  C 
  C49      1.0000 0.14848  0.25347  0.49968  Biso   1.000  C 
  C50      1.0000 0.17005  0.30104  0.65648  Biso   1.000  C 
  C51      1.0000 0.21144  0.29762  0.65829  Biso   1.000  C 
  C52      1.0000 0.84001  0.30869  0.15826  Biso   1.000  C 
  C53      1.0000 0.34002  0.19133  0.65823  Biso   1.000  C 
  C54      1.0000 0.29863  0.19501  0.65801  Biso   1.000  C 
  C55      1.0000 0.58162  0.82465  0.34354  Biso   1.000  C 
  C56      1.0000 0.08162  0.67530  0.84352  Biso   1.000  C 
  C57      1.0000 0.27729  0.25171  0.50396  Biso   1.000  C 
  C58      1.0000 0.57875  0.20198  0.14129  Biso   1.000  C 
  C59      1.0000 0.43083  0.81494  0.14864  Biso   1.000  C 
  C60      1.0000 0.23329  0.75150  0.00271  Biso   1.000  C 
  C61      1.0000 0.71144  0.20236  0.15829  Biso   1.000  C 
  C62      1.0000 0.67004  0.19894  0.15647  Biso   1.000  C 
  C63      1.0000 0.64847  0.24652  0.99966  Biso   1.000  C 
  C64      1.0000 0.21144  0.70240  0.15828  Biso   1.000  C 
  C65      1.0000 0.21177  0.80304  0.84729  Biso   1.000  C 
  C66      1.0000 0.93018  0.69263  0.34953  Biso   1.000  C 
  C67      1.0000 0.10523  0.27942  0.49442  Biso   1.000  C 
  C68      1.0000 0.67028  0.30192  0.84610  Biso   1.000  C 
  C69      1.0000 0.58162  0.17532  0.84352  Biso   1.000  C 
  C70      1.0000 0.17004  0.69899  0.15646  Biso   1.000  C 
  C71      1.0000 0.60523  0.22057  0.99439  Biso   1.000  C 
  C72      1.0000 0.43017  0.80742  0.84952  Biso   1.000  C 
  H1       1.0000 0.28252  0.14597  0.77690  Biso   1.000  H 
  H2       1.0000 0.65423  0.84927  0.77645  Biso   1.000  H 
  H3       1.0000 0.85535  0.63745  0.77678  Biso   1.000  H 
  H4       1.0000 0.42300  0.20093  0.20600  Biso   1.000  H 
  H5       1.0000 0.72716  0.84119  0.78018  Biso   1.000  H 
  H6       1.0000 0.78378  0.86085  0.23284  Biso   1.000  H 
  H7       1.0000 0.85688  0.85783  0.23418  Biso   1.000  H 
  H8       1.0000 0.22778  0.15239  0.22633  Biso   1.000  H 
  H9       1.0000 0.15462  0.15500  0.22391  Biso   1.000  H 
  H10      1.0000 0.58396  0.77662  0.78525  Biso   1.000  H 
  H11      1.0000 0.35687  0.35781  0.23416  Biso   1.000  H 
  H12      1.0000 0.08395  0.27653  0.78526  Biso   1.000  H 
  H13      1.0000 0.58994  0.83263  0.20121  Biso   1.000  H 
  H14      1.0000 0.92302  0.70107  0.20603  Biso   1.000  H 
  H15      1.0000 0.28378  0.36082  0.23284  Biso   1.000  H 
  H16      1.0000 0.15461  0.84502  0.72386  Biso   1.000  H 
  H17      1.0000 0.42458  0.81000  0.29327  Biso   1.000  H 
  H18      1.0000 0.85535  0.36255  0.27680  Biso   1.000  H 
  H19      1.0000 0.78252  0.64595  0.77689  Biso   1.000  H 
  H20      1.0000 0.22778  0.84763  0.72630  Biso   1.000  H 
  H21      1.0000 0.35536  0.13747  0.77679  Biso   1.000  H 
  H22      1.0000 0.72715  0.15881  0.28020  Biso   1.000  H 
  H23      1.0000 0.58395  0.22336  0.28522  Biso   1.000  H 
  H24      1.0000 0.42300  0.79906  0.70602  Biso   1.000  H 
  H25      1.0000 0.08995  0.66727  0.70120  Biso   1.000  H 
  H26      1.0000 0.92457  0.31016  0.29330  Biso   1.000  H 
  H27      1.0000 0.35687  0.64215  0.73421  Biso   1.000  H 
  H28      1.0000 0.22715  0.65886  0.28019  Biso   1.000  H 
  H29      1.0000 0.08395  0.72348  0.28522  Biso   1.000  H 
  H30      1.0000 0.92302  0.29893  0.70607  Biso   1.000  H 
  H31      1.0000 0.65462  0.34501  0.72387  Biso   1.000  H 
  H32      1.0000 0.78252  0.35405  0.27690  Biso   1.000  H 
  H33      1.0000 0.28378  0.63916  0.73287  Biso   1.000  H 
  H34      1.0000 0.65422  0.15073  0.27646  Biso   1.000  H 
  H35      1.0000 0.72778  0.34762  0.72632  Biso   1.000  H 
  H36      1.0000 0.35535  0.86257  0.27676  Biso   1.000  H 
  H37      1.0000 0.08995  0.33275  0.20122  Biso   1.000  H 
  H38      1.0000 0.92457  0.68983  0.79327  Biso   1.000  H 
  H39      1.0000 0.28251  0.85409  0.27686  Biso   1.000  H 
  H40      1.0000 0.42459  0.18999  0.79326  Biso   1.000  H 
  H41      1.0000 0.72778  0.65239  0.22632  Biso   1.000  H 
  H42      1.0000 0.85688  0.14217  0.73424  Biso   1.000  H 
  H43      1.0000 0.15423  0.34926  0.77647  Biso   1.000  H 
  H44      1.0000 0.65461  0.65500  0.22389  Biso   1.000  H 
  H45      1.0000 0.78378  0.13916  0.73289  Biso   1.000  H 
  H46      1.0000 0.22716  0.34117  0.78019  Biso   1.000  H 
  H47      1.0000 0.58995  0.16734  0.70119  Biso   1.000  H 
  H48      1.0000 0.15422  0.65077  0.27646  Biso   1.000  H 
  N1       1.0000 0.04283  0.35489  0.58287  Biso   1.000  N 
  N2       1.0000 0.04468  0.37204  0.39774  Biso   1.000  N 
  N3       1.0000 0.46714  0.86523  0.08896  Biso   1.000  N 
  N4       1.0000 0.54468  0.12797  0.89769  Biso   1.000  N 
  N5       1.0000 0.96676  0.36084  0.90296  Biso   1.000  N 
  N6       1.0000 0.46675  0.86088  0.90291  Biso   1.000  N 
  N7       1.0000 0.54283  0.14506  0.08284  Biso   1.000  N 
  N8       1.0000 0.04282  0.64511  0.08284  Biso   1.000  N 
  N9       1.0000 0.46675  0.13909  0.40289  Biso   1.000  N 
  N10      1.0000 0.96715  0.36529  0.08901  Biso   1.000  N 
  N11      1.0000 0.54283  0.85490  0.58286  Biso   1.000  N 
  N12      1.0000 0.04468  0.62796  0.89770  Biso   1.000  N 
  N13      1.0000 0.96714  0.63470  0.58898  Biso   1.000  N 
  N14      1.0000 0.46715  0.13474  0.58895  Biso   1.000  N 
  N15      1.0000 0.96676  0.63914  0.40293  Biso   1.000  N 
  N16      1.0000 0.54468  0.87199  0.39771  Biso   1.000  N 
  Zn1      1.0000 0.50538  0.99381  0.74315  Biso   1.000  Zn
  Zn2      1.0000 0.50538  0.00613  0.24314  Biso   1.000  Zn
  Zn3      1.0000 0.00538  0.50622  0.24319  Biso   1.000  Zn
  Zn4      1.0000 0.00538  0.49377  0.74318  Biso   1.000  Zn
