data_image0
_cell_length_a       33.5124
_cell_length_b       6.60361
_cell_length_c       6.70658
_cell_angle_alpha    89.9514
_cell_angle_beta     86.8127
_cell_angle_gamma    90.0068

_symmetry_space_group_name_H-M    "P 1"
_symmetry_int_tables_number       1

loop_
  _symmetry_equiv_pos_as_xyz
  'x, y, z'

loop_
  _atom_site_label
  _atom_site_occupancy
  _atom_site_fract_x
  _atom_site_fract_y
  _atom_site_fract_z
  _atom_site_thermal_displace_type
  _atom_site_B_iso_or_equiv
  _atom_site_type_symbol
  C1       1.0000 0.86153  0.23842  0.03857  Biso   1.000  C 
  C2       1.0000 0.57589  0.71005  0.60474  Biso   1.000  C 
  C3       1.0000 0.83582  0.30860  0.19688  Biso   1.000  C 
  C4       1.0000 0.20742  0.27026  0.66162  Biso   1.000  C 
  C5       1.0000 0.16628  0.26343  0.64814  Biso   1.000  C 
  C6       1.0000 0.14908  0.23515  0.46341  Biso   1.000  C 
  C7       1.0000 0.36152  0.26158  0.53883  Biso   1.000  C 
  C8       1.0000 0.33579  0.19157  0.69724  Biso   1.000  C 
  C9       1.0000 0.84397  0.82801  0.36427  Biso   1.000  C 
  C10      1.0000 0.80279  0.82451  0.34874  Biso   1.000  C 
  C11      1.0000 0.92577  0.36038  0.19070  Biso   1.000  C 
  C12      1.0000 0.08493  0.35299  0.30669  Biso   1.000  C 
  C13      1.0000 0.77713  0.24562  0.00672  Biso   1.000  C 
  C14      1.0000 0.84400  0.17124  0.86479  Biso   1.000  C 
  C15      1.0000 0.60563  0.75024  0.45372  Biso   1.000  C 
  C16      1.0000 0.14908  0.76490  0.96291  Biso   1.000  C 
  C17      1.0000 0.29467  0.18784  0.68109  Biso   1.000  C 
  C18      1.0000 0.64906  0.73506  0.46398  Biso   1.000  C 
  C19      1.0000 0.08492  0.64693  0.80638  Biso   1.000  C 
  C20      1.0000 0.60567  0.24991  0.95330  Biso   1.000  C 
  C21      1.0000 0.43492  0.70870  0.89910  Biso   1.000  C 
  C22      1.0000 0.58493  0.14713  0.80716  Biso   1.000  C 
  C23      1.0000 0.67497  0.28558  0.79262  Biso   1.000  C 
  C24      1.0000 0.10565  0.25016  0.45303  Biso   1.000  C 
  C25      1.0000 0.93491  0.79140  0.39768  Biso   1.000  C 
  C26      1.0000 0.21621  0.77959  0.80605  Biso   1.000  C 
  C27      1.0000 0.23342  0.75174  0.99081  Biso   1.000  C 
  C28      1.0000 0.64911  0.26487  0.96358  Biso   1.000  C 
  C29      1.0000 0.66630  0.23666  0.14836  Biso   1.000  C 
  C30      1.0000 0.70744  0.22984  0.16182  Biso   1.000  C 
  C31      1.0000 0.42574  0.86099  0.19154  Biso   1.000  C 
  C32      1.0000 0.57594  0.29021  0.10428  Biso   1.000  C 
  C33      1.0000 0.58492  0.85318  0.30741  Biso   1.000  C 
  C34      1.0000 0.27713  0.25432  0.50669  Biso   1.000  C 
  C35      1.0000 0.40496  0.24585  0.54735  Biso   1.000  C 
  C36      1.0000 0.43494  0.29186  0.39859  Biso   1.000  C 
  C37      1.0000 0.20739  0.73008  0.16139  Biso   1.000  C 
  C38      1.0000 0.42576  0.13968  0.69135  Biso   1.000  C 
  C39      1.0000 0.30286  0.67516  0.84923  Biso   1.000  C 
  C40      1.0000 0.30285  0.32501  0.34894  Biso   1.000  C 
  C41      1.0000 0.34403  0.32850  0.36477  Biso   1.000  C 
  C42      1.0000 0.86151  0.76113  0.53822  Biso   1.000  C 
  C43      1.0000 0.83582  0.69113  0.69682  Biso   1.000  C 
  C44      1.0000 0.79469  0.68739  0.68095  Biso   1.000  C 
  C45      1.0000 0.34403  0.67174  0.86523  Biso   1.000  C 
  C46      1.0000 0.77711  0.75383  0.50664  Biso   1.000  C 
  C47      1.0000 0.93492  0.20817  0.89821  Biso   1.000  C 
  C48      1.0000 0.73344  0.25148  0.99112  Biso   1.000  C 
  C49      1.0000 0.71621  0.27938  0.80643  Biso   1.000  C 
  C50      1.0000 0.07590  0.20983  0.60400  Biso   1.000  C 
  C51      1.0000 0.90496  0.25419  0.04692  Biso   1.000  C 
  C52      1.0000 0.16625  0.73679  0.14778  Biso   1.000  C 
  C53      1.0000 0.10564  0.74982  0.95252  Biso   1.000  C 
  C54      1.0000 0.90495  0.74541  0.54651  Biso   1.000  C 
  C55      1.0000 0.17497  0.78569  0.79206  Biso   1.000  C 
  C56      1.0000 0.33575  0.80900  0.19731  Biso   1.000  C 
  C57      1.0000 0.23342  0.24850  0.49102  Biso   1.000  C 
  C58      1.0000 0.40494  0.75478  0.04773  Biso   1.000  C 
  C59      1.0000 0.21620  0.22045  0.30639  Biso   1.000  C 
  C60      1.0000 0.29463  0.81262  0.18100  Biso   1.000  C 
  C61      1.0000 0.67490  0.71400  0.29302  Biso   1.000  C 
  C62      1.0000 0.71614  0.72003  0.30669  Biso   1.000  C 
  C63      1.0000 0.17495  0.21427  0.29255  Biso   1.000  C 
  C64      1.0000 0.27711  0.74599  0.00668  Biso   1.000  C 
  C65      1.0000 0.66629  0.76334  0.64862  Biso   1.000  C 
  C66      1.0000 0.70743  0.76999  0.66194  Biso   1.000  C 
  C67      1.0000 0.73340  0.74807  0.49122  Biso   1.000  C 
  C68      1.0000 0.92577  0.63922  0.69047  Biso   1.000  C 
  C69      1.0000 0.80282  0.17472  0.84911  Biso   1.000  C 
  C70      1.0000 0.07590  0.79006  0.10345  Biso   1.000  C 
  C71      1.0000 0.36150  0.73894  0.03916  Biso   1.000  C 
  C72      1.0000 0.79470  0.31229  0.18089  Biso   1.000  C 
  H1       1.0000 0.36289  0.61726  0.73904  Biso   1.000  H 
  H2       1.0000 0.73549  0.30076  0.67170  Biso   1.000  H 
  H3       1.0000 0.21953  0.70141  0.30615  Biso   1.000  H 
  H4       1.0000 0.77591  0.37221  0.30492  Biso   1.000  H 
  H5       1.0000 0.07824  0.86712  0.24554  Biso   1.000  H 
  H6       1.0000 0.29059  0.61950  0.71252  Biso   1.000  H 
  H7       1.0000 0.66263  0.30998  0.64748  Biso   1.000  H 
  H8       1.0000 0.09629  0.58479  0.66463  Biso   1.000  H 
  H9       1.0000 0.93278  0.12947  0.75695  Biso   1.000  H 
  H10      1.0000 0.34786  0.86452  0.33449  Biso   1.000  H 
  H11      1.0000 0.86283  0.11672  0.73847  Biso   1.000  H 
  H12      1.0000 0.91464  0.57413  0.83132  Biso   1.000  H 
  H13      1.0000 0.66254  0.68948  0.14800  Biso   1.000  H 
  H14      1.0000 0.14686  0.71305  0.28180  Biso   1.000  H 
  H15      1.0000 0.59628  0.08495  0.66539  Biso   1.000  H 
  H16      1.0000 0.21958  0.29906  0.80627  Biso   1.000  H 
  H17      1.0000 0.91465  0.42551  0.33139  Biso   1.000  H 
  H18      1.0000 0.73540  0.69837  0.17197  Biso   1.000  H 
  H19      1.0000 0.41463  0.07453  0.83213  Biso   1.000  H 
  H20      1.0000 0.27580  0.87245  0.30493  Biso   1.000  H 
  H21      1.0000 0.79051  0.11903  0.71255  Biso   1.000  H 
  H22      1.0000 0.09630  0.41524  0.16486  Biso   1.000  H 
  H23      1.0000 0.64693  0.21291  0.28246  Biso   1.000  H 
  H24      1.0000 0.14691  0.28723  0.78218  Biso   1.000  H 
  H25      1.0000 0.71961  0.20106  0.30649  Biso   1.000  H 
  H26      1.0000 0.27586  0.12806  0.80524  Biso   1.000  H 
  H27      1.0000 0.41461  0.92616  0.33220  Biso   1.000  H 
  H28      1.0000 0.86278  0.88237  0.23777  Biso   1.000  H 
  H29      1.0000 0.79047  0.88000  0.21204  Biso   1.000  H 
  H30      1.0000 0.84800  0.63580  0.83401  Biso   1.000  H 
  H31      1.0000 0.43279  0.37061  0.25721  Biso   1.000  H 
  H32      1.0000 0.64694  0.78731  0.78271  Biso   1.000  H 
  H33      1.0000 0.16262  0.18971  0.14746  Biso   1.000  H 
  H34      1.0000 0.43278  0.62992  0.75787  Biso   1.000  H 
  H35      1.0000 0.71963  0.79883  0.80651  Biso   1.000  H 
  H36      1.0000 0.57824  0.63300  0.74692  Biso   1.000  H 
  H37      1.0000 0.23548  0.19891  0.17172  Biso   1.000  H 
  H38      1.0000 0.07825  0.13276  0.74619  Biso   1.000  H 
  H39      1.0000 0.16266  0.81015  0.64686  Biso   1.000  H 
  H40      1.0000 0.84799  0.36416  0.33394  Biso   1.000  H 
  H41      1.0000 0.59629  0.91535  0.16555  Biso   1.000  H 
  H42      1.0000 0.93277  0.87018  0.25634  Biso   1.000  H 
  H43      1.0000 0.57831  0.36723  0.24635  Biso   1.000  H 
  H44      1.0000 0.77591  0.62763  0.80521  Biso   1.000  H 
  H45      1.0000 0.23551  0.80105  0.67138  Biso   1.000  H 
  H46      1.0000 0.34793  0.13618  0.83450  Biso   1.000  H 
  H47      1.0000 0.36287  0.38282  0.23834  Biso   1.000  H 
  H48      1.0000 0.29056  0.38046  0.21214  Biso   1.000  H 
  N1       1.0000 0.54057  0.78900  0.55431  Biso   1.000  N 
  N2       1.0000 0.47029  0.21213  0.44765  Biso   1.000  N 
  N3       1.0000 0.96431  0.38291  0.12793  Biso   1.000  N 
  N4       1.0000 0.54643  0.87927  0.37102  Biso   1.000  N 
  N5       1.0000 0.97026  0.71168  0.44670  Biso   1.000  N 
  N6       1.0000 0.46430  0.11715  0.62864  Biso   1.000  N 
  N7       1.0000 0.04642  0.62089  0.86997  Biso   1.000  N 
  N8       1.0000 0.96430  0.61671  0.62771  Biso   1.000  N 
  N9       1.0000 0.46429  0.88349  0.12886  Biso   1.000  N 
  N10      1.0000 0.47027  0.78844  0.94807  Biso   1.000  N 
  N11      1.0000 0.54644  0.12119  0.87082  Biso   1.000  N 
  N12      1.0000 0.04643  0.37896  0.37023  Biso   1.000  N 
  N13      1.0000 0.04057  0.28863  0.55349  Biso   1.000  N 
  N14      1.0000 0.04057  0.71119  0.05311  Biso   1.000  N 
  N15      1.0000 0.54060  0.21144  0.05398  Biso   1.000  N 
  N16      1.0000 0.97028  0.28792  0.94711  Biso   1.000  N 
  Zn1      1.0000 0.50551  0.94222  0.75084  Biso   1.000  Zn
  Zn2      1.0000 0.50552  0.05825  0.25083  Biso   1.000  Zn
  Zn3      1.0000 0.00549  0.55789  0.24988  Biso   1.000  Zn
  Zn4      1.0000 0.00550  0.44188  0.74993  Biso   1.000  Zn
