data_image0
_cell_length_a       33.5018
_cell_length_b       8.50291
_cell_length_c       7.34354
_cell_angle_alpha    89.9941
_cell_angle_beta     89.8712
_cell_angle_gamma    90.0002

_symmetry_space_group_name_H-M    "P 1"
_symmetry_int_tables_number       1

loop_
  _symmetry_equiv_pos_as_xyz
  'x, y, z'

loop_
  _atom_site_label
  _atom_site_occupancy
  _atom_site_fract_x
  _atom_site_fract_y
  _atom_site_fract_z
  _atom_site_thermal_displace_type
  _atom_site_B_iso_or_equiv
  _atom_site_type_symbol
  C1       1.0000 0.86215  0.27688  0.00471  Biso   1.000  C 
  C2       1.0000 0.21207  0.30261  0.65756  Biso   1.000  C 
  C3       1.0000 0.17068  0.31462  0.65597  Biso   1.000  C 
  C4       1.0000 0.14847  0.27651  0.49936  Biso   1.000  C 
  C5       1.0000 0.64848  0.77650  0.49937  Biso   1.000  C 
  C6       1.0000 0.58161  0.84397  0.34424  Biso   1.000  C 
  C7       1.0000 0.36216  0.22312  0.50470  Biso   1.000  C 
  C8       1.0000 0.33933  0.17931  0.65788  Biso   1.000  C 
  C9       1.0000 0.84160  0.78194  0.35216  Biso   1.000  C 
  C10      1.0000 0.80011  0.79201  0.35101  Biso   1.000  C 
  C11      1.0000 0.93047  0.33762  0.14979  Biso   1.000  C 
  C12      1.0000 0.08161  0.34404  0.34421  Biso   1.000  C 
  C13      1.0000 0.77732  0.25414  0.00316  Biso   1.000  C 
  C14      1.0000 0.84160  0.21810  0.85218  Biso   1.000  C 
  C15      1.0000 0.60537  0.80473  0.49516  Biso   1.000  C 
  C16      1.0000 0.14847  0.72350  0.99934  Biso   1.000  C 
  C17      1.0000 0.29794  0.19129  0.65748  Biso   1.000  C 
  C18      1.0000 0.57910  0.17639  0.14299  Biso   1.000  C 
  C19      1.0000 0.08161  0.65596  0.84420  Biso   1.000  C 
  C20      1.0000 0.60536  0.19523  0.99515  Biso   1.000  C 
  C21      1.0000 0.43017  0.82999  0.85005  Biso   1.000  C 
  C22      1.0000 0.58161  0.15597  0.84422  Biso   1.000  C 
  C23      1.0000 0.66962  0.27656  0.84532  Biso   1.000  C 
  C24      1.0000 0.10537  0.30476  0.49514  Biso   1.000  C 
  C25      1.0000 0.93017  0.67004  0.35003  Biso   1.000  C 
  C26      1.0000 0.21111  0.78681  0.84632  Biso   1.000  C 
  C27      1.0000 0.17068  0.68539  0.15597  Biso   1.000  C 
  C28      1.0000 0.64847  0.22347  0.99936  Biso   1.000  C 
  C29      1.0000 0.67068  0.18536  0.15598  Biso   1.000  C 
  C30      1.0000 0.71206  0.19737  0.15757  Biso   1.000  C 
  C31      1.0000 0.21206  0.69741  0.15756  Biso   1.000  C 
  C32      1.0000 0.23329  0.74637  0.00199  Biso   1.000  C 
  C33      1.0000 0.43046  0.83757  0.14978  Biso   1.000  C 
  C34      1.0000 0.27732  0.24585  0.50316  Biso   1.000  C 
  C35      1.0000 0.40528  0.19506  0.50169  Biso   1.000  C 
  C36      1.0000 0.83932  0.32070  0.15787  Biso   1.000  C 
  C37      1.0000 0.90528  0.30494  0.00171  Biso   1.000  C 
  C38      1.0000 0.43047  0.16242  0.64977  Biso   1.000  C 
  C39      1.0000 0.30011  0.70805  0.85103  Biso   1.000  C 
  C40      1.0000 0.30011  0.29195  0.35102  Biso   1.000  C 
  C41      1.0000 0.34160  0.28189  0.35216  Biso   1.000  C 
  C42      1.0000 0.86216  0.72315  0.50468  Biso   1.000  C 
  C43      1.0000 0.83932  0.67930  0.65785  Biso   1.000  C 
  C44      1.0000 0.79794  0.69128  0.65746  Biso   1.000  C 
  C45      1.0000 0.34160  0.71811  0.85217  Biso   1.000  C 
  C46      1.0000 0.77732  0.74587  0.50315  Biso   1.000  C 
  C47      1.0000 0.93017  0.32997  0.85006  Biso   1.000  C 
  C48      1.0000 0.40528  0.80495  0.00169  Biso   1.000  C 
  C49      1.0000 0.16962  0.77660  0.84532  Biso   1.000  C 
  C50      1.0000 0.73329  0.24634  0.00200  Biso   1.000  C 
  C51      1.0000 0.71111  0.28678  0.84634  Biso   1.000  C 
  C52      1.0000 0.07910  0.32358  0.64297  Biso   1.000  C 
  C53      1.0000 0.10536  0.69525  0.99513  Biso   1.000  C 
  C54      1.0000 0.90528  0.69507  0.50168  Biso   1.000  C 
  C55      1.0000 0.21111  0.21320  0.34636  Biso   1.000  C 
  C56      1.0000 0.33932  0.82075  0.15784  Biso   1.000  C 
  C57      1.0000 0.23329  0.25364  0.50200  Biso   1.000  C 
  C58      1.0000 0.29793  0.80877  0.15744  Biso   1.000  C 
  C59      1.0000 0.27731  0.75418  0.00314  Biso   1.000  C 
  C60      1.0000 0.07909  0.67644  0.14295  Biso   1.000  C 
  C61      1.0000 0.66962  0.72342  0.34534  Biso   1.000  C 
  C62      1.0000 0.71111  0.71323  0.34634  Biso   1.000  C 
  C63      1.0000 0.16962  0.22341  0.34535  Biso   1.000  C 
  C64      1.0000 0.43017  0.16997  0.35004  Biso   1.000  C 
  C65      1.0000 0.67068  0.81460  0.65598  Biso   1.000  C 
  C66      1.0000 0.71207  0.80260  0.65756  Biso   1.000  C 
  C67      1.0000 0.73329  0.75365  0.50199  Biso   1.000  C 
  C68      1.0000 0.93047  0.66240  0.64976  Biso   1.000  C 
  C69      1.0000 0.80011  0.20803  0.85104  Biso   1.000  C 
  C70      1.0000 0.57910  0.82359  0.64301  Biso   1.000  C 
  C71      1.0000 0.36215  0.77690  0.00469  Biso   1.000  C 
  C72      1.0000 0.79794  0.30871  0.15747  Biso   1.000  C 
  H1       1.0000 0.08976  0.34956  0.20121  Biso   1.000  H 
  H2       1.0000 0.22841  0.66201  0.27921  Biso   1.000  H 
  H3       1.0000 0.08444  0.69397  0.28727  Biso   1.000  H 
  H4       1.0000 0.92317  0.32220  0.70609  Biso   1.000  H 
  H5       1.0000 0.65333  0.31102  0.72312  Biso   1.000  H 
  H6       1.0000 0.78113  0.34844  0.27635  Biso   1.000  H 
  H7       1.0000 0.28509  0.66073  0.73119  Biso   1.000  H 
  H8       1.0000 0.65543  0.13923  0.27610  Biso   1.000  H 
  H9       1.0000 0.72660  0.32977  0.72529  Biso   1.000  H 
  H10      1.0000 0.35403  0.87113  0.27670  Biso   1.000  H 
  H11      1.0000 0.28113  0.84851  0.27631  Biso   1.000  H 
  H12      1.0000 0.92403  0.66645  0.79459  Biso   1.000  H 
  H13      1.0000 0.58976  0.15048  0.70122  Biso   1.000  H 
  H14      1.0000 0.22841  0.33801  0.77921  Biso   1.000  H 
  H15      1.0000 0.78509  0.16072  0.73119  Biso   1.000  H 
  H16      1.0000 0.65333  0.68898  0.22315  Biso   1.000  H 
  H17      1.0000 0.08977  0.65043  0.70121  Biso   1.000  H 
  H18      1.0000 0.15543  0.63927  0.27609  Biso   1.000  H 
  H19      1.0000 0.85831  0.17924  0.73264  Biso   1.000  H 
  H20      1.0000 0.72660  0.67025  0.22529  Biso   1.000  H 
  H21      1.0000 0.42404  0.16651  0.79460  Biso   1.000  H 
  H22      1.0000 0.15543  0.36075  0.77608  Biso   1.000  H 
  H23      1.0000 0.92403  0.33357  0.29461  Biso   1.000  H 
  H24      1.0000 0.35831  0.67924  0.73264  Biso   1.000  H 
  H25      1.0000 0.42317  0.82225  0.70607  Biso   1.000  H 
  H26      1.0000 0.72841  0.16197  0.27922  Biso   1.000  H 
  H27      1.0000 0.22660  0.17019  0.22532  Biso   1.000  H 
  H28      1.0000 0.78509  0.83932  0.23117  Biso   1.000  H 
  H29      1.0000 0.42316  0.17771  0.20607  Biso   1.000  H 
  H30      1.0000 0.72842  0.83800  0.77921  Biso   1.000  H 
  H31      1.0000 0.15333  0.18895  0.22315  Biso   1.000  H 
  H32      1.0000 0.85404  0.62892  0.77671  Biso   1.000  H 
  H33      1.0000 0.65544  0.86072  0.77610  Biso   1.000  H 
  H34      1.0000 0.28114  0.15156  0.77637  Biso   1.000  H 
  H35      1.0000 0.85831  0.82082  0.23261  Biso   1.000  H 
  H36      1.0000 0.58446  0.80613  0.78733  Biso   1.000  H 
  H37      1.0000 0.58445  0.19387  0.28731  Biso   1.000  H 
  H38      1.0000 0.08445  0.30606  0.78729  Biso   1.000  H 
  H39      1.0000 0.58975  0.84945  0.20123  Biso   1.000  H 
  H40      1.0000 0.92317  0.67781  0.20606  Biso   1.000  H 
  H41      1.0000 0.28509  0.33924  0.23116  Biso   1.000  H 
  H42      1.0000 0.15333  0.81106  0.72312  Biso   1.000  H 
  H43      1.0000 0.42403  0.83350  0.29461  Biso   1.000  H 
  H44      1.0000 0.35831  0.32073  0.23260  Biso   1.000  H 
  H45      1.0000 0.85404  0.37107  0.27673  Biso   1.000  H 
  H46      1.0000 0.78114  0.65153  0.77634  Biso   1.000  H 
  H47      1.0000 0.22660  0.82981  0.72528  Biso   1.000  H 
  H48      1.0000 0.35404  0.12894  0.77675  Biso   1.000  H 
  N1       1.0000 0.96668  0.62195  0.40411  Biso   1.000  N 
  N2       1.0000 0.46685  0.11750  0.59048  Biso   1.000  N 
  N3       1.0000 0.96685  0.61750  0.59048  Biso   1.000  N 
  N4       1.0000 0.04474  0.61288  0.89907  Biso   1.000  N 
  N5       1.0000 0.46667  0.12190  0.40412  Biso   1.000  N 
  N6       1.0000 0.54312  0.87393  0.58479  Biso   1.000  N 
  N7       1.0000 0.96685  0.38252  0.09050  Biso   1.000  N 
  N8       1.0000 0.54474  0.88706  0.39912  Biso   1.000  N 
  N9       1.0000 0.04311  0.62609  0.08473  Biso   1.000  N 
  N10      1.0000 0.04312  0.37393  0.58475  Biso   1.000  N 
  N11      1.0000 0.54311  0.12604  0.08477  Biso   1.000  N 
  N12      1.0000 0.46667  0.87805  0.90413  Biso   1.000  N 
  N13      1.0000 0.96668  0.37805  0.90414  Biso   1.000  N 
  N14      1.0000 0.54474  0.11288  0.89911  Biso   1.000  N 
  N15      1.0000 0.46685  0.88247  0.09050  Biso   1.000  N 
  N16      1.0000 0.04474  0.38712  0.39909  Biso   1.000  N 
  Zn1      1.0000 0.50538  0.00491  0.24458  Biso   1.000  Zn
  Zn2      1.0000 0.00539  0.50496  0.24454  Biso   1.000  Zn
  Zn3      1.0000 0.50539  0.99504  0.74456  Biso   1.000  Zn
  Zn4      1.0000 0.00539  0.49503  0.74455  Biso   1.000  Zn
