data_image0
_cell_length_a       33.4312
_cell_length_b       6.48729
_cell_length_c       6.54565
_cell_angle_alpha    89.963
_cell_angle_beta     85.1716
_cell_angle_gamma    90.0124

_symmetry_space_group_name_H-M    "P 1"
_symmetry_int_tables_number       1

loop_
  _symmetry_equiv_pos_as_xyz
  'x, y, z'

loop_
  _atom_site_label
  _atom_site_occupancy
  _atom_site_fract_x
  _atom_site_fract_y
  _atom_site_fract_z
  _atom_site_thermal_displace_type
  _atom_site_B_iso_or_equiv
  _atom_site_type_symbol
  C1       1.0000 0.86127  0.23655  0.04784  Biso   1.000  C 
  C2       1.0000 0.16497  0.73606  0.14461  Biso   1.000  C 
  C3       1.0000 0.90468  0.24955  0.05965  Biso   1.000  C 
  C4       1.0000 0.07536  0.19886  0.59561  Biso   1.000  C 
  C5       1.0000 0.71792  0.27963  0.79770  Biso   1.000  C 
  C6       1.0000 0.73357  0.25010  0.98850  Biso   1.000  C 
  C7       1.0000 0.93569  0.19548  0.91025  Biso   1.000  C 
  C8       1.0000 0.10592  0.75495  0.94143  Biso   1.000  C 
  C9       1.0000 0.77707  0.75393  0.50762  Biso   1.000  C 
  C10      1.0000 0.79302  0.69332  0.69070  Biso   1.000  C 
  C11      1.0000 0.83401  0.69782  0.71086  Biso   1.000  C 
  C12      1.0000 0.86120  0.76225  0.54740  Biso   1.000  C 
  C13      1.0000 0.34539  0.32191  0.36399  Biso   1.000  C 
  C14      1.0000 0.30436  0.31830  0.34435  Biso   1.000  C 
  C15      1.0000 0.30435  0.68207  0.84467  Biso   1.000  C 
  C16      1.0000 0.34539  0.67855  0.86431  Biso   1.000  C 
  C17      1.0000 0.90461  0.74947  0.55921  Biso   1.000  C 
  C18      1.0000 0.17673  0.78701  0.78007  Biso   1.000  C 
  C19      1.0000 0.33403  0.80222  0.21090  Biso   1.000  C 
  C20      1.0000 0.79309  0.30559  0.19085  Biso   1.000  C 
  C21      1.0000 0.36123  0.73751  0.04771  Biso   1.000  C 
  C22      1.0000 0.80440  0.18136  0.84476  Biso   1.000  C 
  C23      1.0000 0.92455  0.63653  0.70386  Biso   1.000  C 
  C24      1.0000 0.73347  0.74899  0.48840  Biso   1.000  C 
  C25      1.0000 0.70598  0.77259  0.66156  Biso   1.000  C 
  C26      1.0000 0.66494  0.76417  0.64484  Biso   1.000  C 
  C27      1.0000 0.27710  0.74568  0.00770  Biso   1.000  C 
  C28      1.0000 0.17672  0.21318  0.28013  Biso   1.000  C 
  C29      1.0000 0.71779  0.71959  0.29770  Biso   1.000  C 
  C30      1.0000 0.67665  0.71260  0.28041  Biso   1.000  C 
  C31      1.0000 0.29304  0.80665  0.19063  Biso   1.000  C 
  C32      1.0000 0.21786  0.22037  0.29749  Biso   1.000  C 
  C33      1.0000 0.40463  0.75049  0.05973  Biso   1.000  C 
  C34      1.0000 0.23352  0.24967  0.48825  Biso   1.000  C 
  C35      1.0000 0.42455  0.13757  0.70429  Biso   1.000  C 
  C36      1.0000 0.20600  0.72748  0.16149  Biso   1.000  C 
  C37      1.0000 0.07536  0.80126  0.09533  Biso   1.000  C 
  C38      1.0000 0.40463  0.25046  0.55952  Biso   1.000  C 
  C39      1.0000 0.60586  0.74525  0.44202  Biso   1.000  C 
  C40      1.0000 0.84543  0.17777  0.86438  Biso   1.000  C 
  C41      1.0000 0.77716  0.24489  0.00785  Biso   1.000  C 
  C42      1.0000 0.08576  0.35255  0.29393  Biso   1.000  C 
  C43      1.0000 0.92460  0.36273  0.20410  Biso   1.000  C 
  C44      1.0000 0.80431  0.81712  0.34429  Biso   1.000  C 
  C45      1.0000 0.14938  0.76685  0.95378  Biso   1.000  C 
  C46      1.0000 0.84535  0.82069  0.36382  Biso   1.000  C 
  C47      1.0000 0.36122  0.26318  0.54753  Biso   1.000  C 
  C48      1.0000 0.16498  0.26426  0.64460  Biso   1.000  C 
  C49      1.0000 0.20601  0.27294  0.66140  Biso   1.000  C 
  C50      1.0000 0.83409  0.30109  0.21111  Biso   1.000  C 
  C51      1.0000 0.57532  0.69928  0.59623  Biso   1.000  C 
  C52      1.0000 0.43565  0.30468  0.41014  Biso   1.000  C 
  C53      1.0000 0.33404  0.19849  0.71083  Biso   1.000  C 
  C54      1.0000 0.29304  0.19396  0.69059  Biso   1.000  C 
  C55      1.0000 0.14938  0.23336  0.45386  Biso   1.000  C 
  C56      1.0000 0.08577  0.64759  0.79385  Biso   1.000  C 
  C57      1.0000 0.27711  0.25478  0.50755  Biso   1.000  C 
  C58      1.0000 0.64932  0.73315  0.45417  Biso   1.000  C 
  C59      1.0000 0.58570  0.85262  0.29436  Biso   1.000  C 
  C60      1.0000 0.57544  0.30149  0.09591  Biso   1.000  C 
  C61      1.0000 0.70605  0.22670  0.16161  Biso   1.000  C 
  C62      1.0000 0.66502  0.23553  0.14474  Biso   1.000  C 
  C63      1.0000 0.64943  0.26670  0.95400  Biso   1.000  C 
  C64      1.0000 0.42453  0.86344  0.20442  Biso   1.000  C 
  C65      1.0000 0.21787  0.77992  0.79750  Biso   1.000  C 
  C66      1.0000 0.93561  0.80377  0.40976  Biso   1.000  C 
  C67      1.0000 0.10592  0.24520  0.44158  Biso   1.000  C 
  C68      1.0000 0.67678  0.28694  0.78028  Biso   1.000  C 
  C69      1.0000 0.58576  0.14802  0.79428  Biso   1.000  C 
  C70      1.0000 0.23352  0.75073  0.98835  Biso   1.000  C 
  C71      1.0000 0.60596  0.25511  0.94182  Biso   1.000  C 
  C72      1.0000 0.43566  0.69646  0.91043  Biso   1.000  C 
  H1       1.0000 0.43443  0.61075  0.76850  Biso   1.000  H 
  H2       1.0000 0.16563  0.18757  0.13034  Biso   1.000  H 
  H3       1.0000 0.64436  0.78815  0.78099  Biso   1.000  H 
  H4       1.0000 0.79336  0.86671  0.20009  Biso   1.000  H 
  H5       1.0000 0.84492  0.64874  0.85546  Biso   1.000  H 
  H6       1.0000 0.86550  0.86830  0.23291  Biso   1.000  H 
  H7       1.0000 0.71687  0.80356  0.81076  Biso   1.000  H 
  H8       1.0000 0.41238  0.93614  0.34527  Biso   1.000  H 
  H9       1.0000 0.43441  0.39042  0.26812  Biso   1.000  H 
  H10      1.0000 0.57710  0.61784  0.74038  Biso   1.000  H 
  H11      1.0000 0.77299  0.63813  0.81898  Biso   1.000  H 
  H12      1.0000 0.07714  0.11731  0.73971  Biso   1.000  H 
  H13      1.0000 0.16566  0.81255  0.63022  Biso   1.000  H 
  H14      1.0000 0.84498  0.35033  0.35562  Biso   1.000  H 
  H15      1.0000 0.59775  0.91966  0.15019  Biso   1.000  H 
  H16      1.0000 0.93435  0.88962  0.26782  Biso   1.000  H 
  H17      1.0000 0.57725  0.38297  0.23992  Biso   1.000  H 
  H18      1.0000 0.23835  0.80183  0.66067  Biso   1.000  H 
  H19      1.0000 0.34493  0.14922  0.85539  Biso   1.000  H 
  H20      1.0000 0.36555  0.36987  0.23326  Biso   1.000  H 
  H21      1.0000 0.29342  0.36818  0.20022  Biso   1.000  H 
  H22      1.0000 0.27301  0.13853  0.81873  Biso   1.000  H 
  H23      1.0000 0.23833  0.19842  0.16066  Biso   1.000  H 
  H24      1.0000 0.71691  0.19558  0.31089  Biso   1.000  H 
  H25      1.0000 0.91246  0.43563  0.34487  Biso   1.000  H 
  H26      1.0000 0.64441  0.21172  0.28089  Biso   1.000  H 
  H27      1.0000 0.14438  0.28794  0.78077  Biso   1.000  H 
  H28      1.0000 0.73840  0.30162  0.66088  Biso   1.000  H 
  H29      1.0000 0.21686  0.69668  0.31084  Biso   1.000  H 
  H30      1.0000 0.77307  0.36093  0.31895  Biso   1.000  H 
  H31      1.0000 0.07712  0.88284  0.23933  Biso   1.000  H 
  H32      1.0000 0.29341  0.63203  0.70065  Biso   1.000  H 
  H33      1.0000 0.66571  0.31273  0.63045  Biso   1.000  H 
  H34      1.0000 0.09783  0.58036  0.64991  Biso   1.000  H 
  H35      1.0000 0.93444  0.10960  0.76843  Biso   1.000  H 
  H36      1.0000 0.34493  0.85161  0.35536  Biso   1.000  H 
  H37      1.0000 0.36554  0.63044  0.73369  Biso   1.000  H 
  H38      1.0000 0.91243  0.56364  0.84478  Biso   1.000  H 
  H39      1.0000 0.86559  0.12978  0.73372  Biso   1.000  H 
  H40      1.0000 0.79345  0.13148  0.70069  Biso   1.000  H 
  H41      1.0000 0.27301  0.86211  0.31866  Biso   1.000  H 
  H42      1.0000 0.41240  0.06468  0.84517  Biso   1.000  H 
  H43      1.0000 0.09782  0.41980  0.14987  Biso   1.000  H 
  H44      1.0000 0.21689  0.30382  0.81066  Biso   1.000  H 
  H45      1.0000 0.59777  0.08083  0.65022  Biso   1.000  H 
  H46      1.0000 0.14435  0.71238  0.28077  Biso   1.000  H 
  H47      1.0000 0.66555  0.68690  0.13067  Biso   1.000  H 
  H48      1.0000 0.73824  0.69736  0.16085  Biso   1.000  H 
  N1       1.0000 0.47086  0.77808  0.95952  Biso   1.000  N 
  N2       1.0000 0.97089  0.27729  0.95905  Biso   1.000  N 
  N3       1.0000 0.54011  0.22204  0.04625  Biso   1.000  N 
  N4       1.0000 0.04006  0.72155  0.04555  Biso   1.000  N 
  N5       1.0000 0.04007  0.27857  0.54581  Biso   1.000  N 
  N6       1.0000 0.04678  0.37559  0.36010  Biso   1.000  N 
  N7       1.0000 0.54677  0.12520  0.86057  Biso   1.000  N 
  N8       1.0000 0.46366  0.88232  0.14097  Biso   1.000  N 
  N9       1.0000 0.97083  0.72232  0.45874  Biso   1.000  N 
  N10      1.0000 0.04677  0.62456  0.85996  Biso   1.000  N 
  N11      1.0000 0.46367  0.11891  0.64082  Biso   1.000  N 
  N12      1.0000 0.54673  0.87598  0.36071  Biso   1.000  N 
  N13      1.0000 0.96371  0.38168  0.14042  Biso   1.000  N 
  N14      1.0000 0.47085  0.22320  0.45924  Biso   1.000  N 
  N15      1.0000 0.54003  0.77921  0.54654  Biso   1.000  N 
  N16      1.0000 0.96367  0.61793  0.64027  Biso   1.000  N 
  Zn1      1.0000 0.00543  0.56246  0.25173  Biso   1.000  Zn
  Zn2      1.0000 0.50542  0.93845  0.75246  Biso   1.000  Zn
  Zn3      1.0000 0.50542  0.06302  0.25228  Biso   1.000  Zn
  Zn4      1.0000 0.00543  0.43748  0.75177  Biso   1.000  Zn
