data_image0
_cell_length_a       28.6505
_cell_length_b       20.7315
_cell_length_c       7.12469
_cell_angle_alpha    89.9907
_cell_angle_beta     90.5044
_cell_angle_gamma    89.9998

_symmetry_space_group_name_H-M    "P 1"
_symmetry_int_tables_number       1

loop_
  _symmetry_equiv_pos_as_xyz
  'x, y, z'

loop_
  _atom_site_label
  _atom_site_occupancy
  _atom_site_fract_x
  _atom_site_fract_y
  _atom_site_fract_z
  _atom_site_thermal_displace_type
  _atom_site_B_iso_or_equiv
  _atom_site_type_symbol
  C1       1.0000 0.85904  0.34674  0.00058  Biso   1.000  C 
  C2       1.0000 0.20581  0.27585  0.33828  Biso   1.000  C 
  C3       1.0000 0.29106  0.80376  0.16139  Biso   1.000  C 
  C4       1.0000 0.27669  0.76969  0.00015  Biso   1.000  C 
  C5       1.0000 0.08401  0.59095  0.15427  Biso   1.000  C 
  C6       1.0000 0.42586  0.08979  0.34529  Biso   1.000  C 
  C7       1.0000 0.92588  0.41020  0.84536  Biso   1.000  C 
  C8       1.0000 0.10955  0.61328  0.99970  Biso   1.000  C 
  C9       1.0000 0.77669  0.73031  0.50020  Biso   1.000  C 
  C10      1.0000 0.79107  0.69625  0.66146  Biso   1.000  C 
  C11      1.0000 0.83115  0.65846  0.66150  Biso   1.000  C 
  C12      1.0000 0.85903  0.65325  0.50055  Biso   1.000  C 
  C13      1.0000 0.34478  0.18756  0.33949  Biso   1.000  C 
  C14      1.0000 0.30449  0.22494  0.33915  Biso   1.000  C 
  C15      1.0000 0.30451  0.77507  0.83914  Biso   1.000  C 
  C16      1.0000 0.34480  0.81245  0.83949  Biso   1.000  C 
  C17      1.0000 0.90102  0.61328  0.50032  Biso   1.000  C 
  C18      1.0000 0.58402  0.90908  0.65425  Biso   1.000  C 
  C19      1.0000 0.33114  0.84155  0.16142  Biso   1.000  C 
  C20      1.0000 0.35903  0.84675  0.00051  Biso   1.000  C 
  C21      1.0000 0.79107  0.30373  0.16145  Biso   1.000  C 
  C22      1.0000 0.80451  0.27507  0.83919  Biso   1.000  C 
  C23      1.0000 0.92590  0.58817  0.65487  Biso   1.000  C 
  C24      1.0000 0.73404  0.77008  0.50001  Biso   1.000  C 
  C25      1.0000 0.72005  0.80362  0.66169  Biso   1.000  C 
  C26      1.0000 0.67991  0.84129  0.66150  Biso   1.000  C 
  C27      1.0000 0.15159  0.34685  0.49992  Biso   1.000  C 
  C28      1.0000 0.16545  0.31311  0.33835  Biso   1.000  C 
  C29      1.0000 0.70581  0.77584  0.33828  Biso   1.000  C 
  C30      1.0000 0.66545  0.81311  0.33833  Biso   1.000  C 
  C31      1.0000 0.17990  0.34128  0.66153  Biso   1.000  C 
  C32      1.0000 0.22005  0.30362  0.66171  Biso   1.000  C 
  C33      1.0000 0.83115  0.34153  0.16151  Biso   1.000  C 
  C34      1.0000 0.23403  0.27008  0.50001  Biso   1.000  C 
  C35      1.0000 0.42589  0.08817  0.65483  Biso   1.000  C 
  C36      1.0000 0.40103  0.88672  0.00029  Biso   1.000  C 
  C37      1.0000 0.65160  0.84685  0.49989  Biso   1.000  C 
  C38      1.0000 0.40102  0.11329  0.50029  Biso   1.000  C 
  C39      1.0000 0.60955  0.88673  0.49968  Biso   1.000  C 
  C40      1.0000 0.84480  0.31245  0.83954  Biso   1.000  C 
  C41      1.0000 0.77670  0.26968  0.00020  Biso   1.000  C 
  C42      1.0000 0.08538  0.41290  0.34495  Biso   1.000  C 
  C43      1.0000 0.92588  0.41185  0.15489  Biso   1.000  C 
  C44      1.0000 0.80449  0.72493  0.33917  Biso   1.000  C 
  C45      1.0000 0.15160  0.65315  0.99988  Biso   1.000  C 
  C46      1.0000 0.84478  0.68755  0.33951  Biso   1.000  C 
  C47      1.0000 0.35903  0.15325  0.50052  Biso   1.000  C 
  C48      1.0000 0.22005  0.69638  0.16169  Biso   1.000  C 
  C49      1.0000 0.23404  0.72992  0.99997  Biso   1.000  C 
  C50      1.0000 0.42587  0.91186  0.15483  Biso   1.000  C 
  C51      1.0000 0.58400  0.09095  0.15423  Biso   1.000  C 
  C52      1.0000 0.58538  0.91292  0.34489  Biso   1.000  C 
  C53      1.0000 0.33114  0.15845  0.66146  Biso   1.000  C 
  C54      1.0000 0.29106  0.19625  0.66144  Biso   1.000  C 
  C55      1.0000 0.17990  0.65872  0.16151  Biso   1.000  C 
  C56      1.0000 0.08539  0.58708  0.84493  Biso   1.000  C 
  C57      1.0000 0.27669  0.23031  0.50019  Biso   1.000  C 
  C58      1.0000 0.90103  0.38671  0.00036  Biso   1.000  C 
  C59      1.0000 0.08402  0.40908  0.65431  Biso   1.000  C 
  C60      1.0000 0.70583  0.22415  0.83826  Biso   1.000  C 
  C61      1.0000 0.72005  0.19636  0.16170  Biso   1.000  C 
  C62      1.0000 0.67991  0.15870  0.16151  Biso   1.000  C 
  C63      1.0000 0.65161  0.15314  0.99987  Biso   1.000  C 
  C64      1.0000 0.73405  0.22991  0.00000  Biso   1.000  C 
  C65      1.0000 0.20582  0.72415  0.83821  Biso   1.000  C 
  C66      1.0000 0.92586  0.58978  0.34533  Biso   1.000  C 
  C67      1.0000 0.10955  0.38672  0.49974  Biso   1.000  C 
  C68      1.0000 0.66547  0.18689  0.83830  Biso   1.000  C 
  C69      1.0000 0.58541  0.08707  0.84488  Biso   1.000  C 
  C70      1.0000 0.16547  0.68689  0.83829  Biso   1.000  C 
  C71      1.0000 0.42588  0.91020  0.84530  Biso   1.000  C 
  C72      1.0000 0.60956  0.11327  0.99967  Biso   1.000  C 
  H1       1.0000 0.21497  0.24916  0.21187  Biso   1.000  H 
  H2       1.0000 0.14373  0.31505  0.21187  Biso   1.000  H 
  H3       1.0000 0.67093  0.86820  0.78776  Biso   1.000  H 
  H4       1.0000 0.79504  0.75201  0.21313  Biso   1.000  H 
  H5       1.0000 0.84040  0.63123  0.78754  Biso   1.000  H 
  H6       1.0000 0.86610  0.68588  0.21343  Biso   1.000  H 
  H7       1.0000 0.74183  0.80164  0.78794  Biso   1.000  H 
  H8       1.0000 0.41902  0.90410  0.69627  Biso   1.000  H 
  H9       1.0000 0.41897  0.09587  0.19625  Biso   1.000  H 
  H10      1.0000 0.58959  0.90056  0.80314  Biso   1.000  H 
  H11      1.0000 0.34039  0.13122  0.78749  Biso   1.000  H 
  H12      1.0000 0.08959  0.40056  0.80320  Biso   1.000  H 
  H13      1.0000 0.91898  0.59586  0.19630  Biso   1.000  H 
  H14      1.0000 0.21499  0.75085  0.71179  Biso   1.000  H 
  H15      1.0000 0.14375  0.68495  0.71179  Biso   1.000  H 
  H16      1.0000 0.84039  0.36875  0.28754  Biso   1.000  H 
  H17      1.0000 0.74183  0.19834  0.28796  Biso   1.000  H 
  H18      1.0000 0.36610  0.18589  0.21340  Biso   1.000  H 
  H19      1.0000 0.29504  0.25202  0.21312  Biso   1.000  H 
  H20      1.0000 0.76963  0.69794  0.78721  Biso   1.000  H 
  H21      1.0000 0.59298  0.90954  0.19617  Biso   1.000  H 
  H22      1.0000 0.58956  0.09948  0.30312  Biso   1.000  H 
  H23      1.0000 0.26963  0.19794  0.78718  Biso   1.000  H 
  H24      1.0000 0.41964  0.90614  0.30399  Biso   1.000  H 
  H25      1.0000 0.17093  0.36819  0.78779  Biso   1.000  H 
  H26      1.0000 0.09296  0.40951  0.19621  Biso   1.000  H 
  H27      1.0000 0.09300  0.59045  0.69620  Biso   1.000  H 
  H28      1.0000 0.71499  0.25086  0.71184  Biso   1.000  H 
  H29      1.0000 0.24183  0.69837  0.28793  Biso   1.000  H 
  H30      1.0000 0.76963  0.30203  0.28718  Biso   1.000  H 
  H31      1.0000 0.08956  0.59948  0.30316  Biso   1.000  H 
  H32      1.0000 0.29506  0.74799  0.71312  Biso   1.000  H 
  H33      1.0000 0.64375  0.18496  0.71181  Biso   1.000  H 
  H34      1.0000 0.36613  0.81412  0.71343  Biso   1.000  H 
  H35      1.0000 0.91902  0.40409  0.69633  Biso   1.000  H 
  H36      1.0000 0.34037  0.86878  0.28744  Biso   1.000  H 
  H37      1.0000 0.67093  0.13178  0.28778  Biso   1.000  H 
  H38      1.0000 0.91968  0.59391  0.80403  Biso   1.000  H 
  H39      1.0000 0.41968  0.09390  0.80399  Biso   1.000  H 
  H40      1.0000 0.59302  0.09042  0.69617  Biso   1.000  H 
  H41      1.0000 0.86613  0.31413  0.71347  Biso   1.000  H 
  H42      1.0000 0.79506  0.24800  0.71315  Biso   1.000  H 
  H43      1.0000 0.91965  0.40613  0.30405  Biso   1.000  H 
  H44      1.0000 0.17093  0.63181  0.28779  Biso   1.000  H 
  H45      1.0000 0.64373  0.81504  0.21185  Biso   1.000  H 
  H46      1.0000 0.71497  0.74914  0.21188  Biso   1.000  H 
  H47      1.0000 0.24184  0.30164  0.78794  Biso   1.000  H 
  H48      1.0000 0.26961  0.80207  0.28711  Biso   1.000  H 
  N1       1.0000 0.54872  0.05211  0.90393  Biso   1.000  N 
  N2       1.0000 0.46235  0.94713  0.09532  Biso   1.000  N 
  N3       1.0000 0.46232  0.94617  0.90418  Biso   1.000  N 
  N4       1.0000 0.96232  0.44617  0.90424  Biso   1.000  N 
  N5       1.0000 0.54777  0.05465  0.09489  Biso   1.000  N 
  N6       1.0000 0.04777  0.55465  0.09494  Biso   1.000  N 
  N7       1.0000 0.04871  0.44787  0.40400  Biso   1.000  N 
  N8       1.0000 0.04778  0.44537  0.59496  Biso   1.000  N 
  N9       1.0000 0.96235  0.44712  0.09538  Biso   1.000  N 
  N10      1.0000 0.46236  0.05290  0.59531  Biso   1.000  N 
  N11      1.0000 0.54871  0.94789  0.40394  Biso   1.000  N 
  N12      1.0000 0.46230  0.05383  0.40417  Biso   1.000  N 
  N13      1.0000 0.54778  0.94537  0.59491  Biso   1.000  N 
  N14      1.0000 0.96236  0.55290  0.59535  Biso   1.000  N 
  N15      1.0000 0.04872  0.55212  0.90398  Biso   1.000  N 
  N16      1.0000 0.96231  0.55382  0.40421  Biso   1.000  N 
  Zn1      1.0000 0.50530  0.00118  0.24955  Biso   1.000  Zn
  Zn2      1.0000 0.00530  0.50118  0.24963  Biso   1.000  Zn
  Zn3      1.0000 0.50532  0.99883  0.74955  Biso   1.000  Zn
  Zn4      1.0000 0.00531  0.49883  0.74961  Biso   1.000  Zn
