data_image0
_cell_length_a       21.5617
_cell_length_b       14.4213
_cell_length_c       6.64643
_cell_angle_alpha    89.9983
_cell_angle_beta     102.726
_cell_angle_gamma    90.0003

_symmetry_space_group_name_H-M    "P 1"
_symmetry_int_tables_number       1

loop_
  _symmetry_equiv_pos_as_xyz
  'x, y, z'

loop_
  _atom_site_label
  _atom_site_occupancy
  _atom_site_fract_x
  _atom_site_fract_y
  _atom_site_fract_z
  _atom_site_thermal_displace_type
  _atom_site_B_iso_or_equiv
  _atom_site_type_symbol
  Al1      1.0000 0.50090  0.50119  0.49975  Biso   1.000  Al
  Al2      1.0000 0.00090  0.00120  0.49977  Biso   1.000  Al
  Al3      1.0000 0.00090  0.99883  0.99977  Biso   1.000  Al
  Al4      1.0000 0.50090  0.49881  0.99973  Biso   1.000  Al
  C1       1.0000 0.68709  0.66827  0.04917  Biso   1.000  C 
  C2       1.0000 0.85440  0.16838  0.64779  Biso   1.000  C 
  C3       1.0000 0.81422  0.17180  0.45398  Biso   1.000  C 
  C4       1.0000 0.71561  0.22951  0.22093  Biso   1.000  C 
  C5       1.0000 0.83956  0.21982  0.81339  Biso   1.000  C 
  C6       1.0000 0.35441  0.66840  0.64780  Biso   1.000  C 
  C7       1.0000 0.31423  0.67182  0.45399  Biso   1.000  C 
  C8       1.0000 0.21562  0.72954  0.22094  Biso   1.000  C 
  C9       1.0000 0.25793  0.72545  0.41786  Biso   1.000  C 
  C10      1.0000 0.78578  0.72594  0.28188  Biso   1.000  C 
  C11      1.0000 0.33958  0.71983  0.81341  Biso   1.000  C 
  C12      1.0000 0.64716  0.66475  0.85500  Biso   1.000  C 
  C13      1.0000 0.41268  0.39061  0.18190  Biso   1.000  C 
  C14      1.0000 0.14712  0.16482  0.85500  Biso   1.000  C 
  C15      1.0000 0.18706  0.16835  0.04917  Biso   1.000  C 
  C16      1.0000 0.41270  0.60945  0.68192  Biso   1.000  C 
  C17      1.0000 0.91269  0.10943  0.68192  Biso   1.000  C 
  C18      1.0000 0.28575  0.22602  0.28187  Biso   1.000  C 
  C19      1.0000 0.08884  0.10590  0.81963  Biso   1.000  C 
  C20      1.0000 0.74336  0.72196  0.08518  Biso   1.000  C 
  C21      1.0000 0.24333  0.22204  0.08517  Biso   1.000  C 
  C22      1.0000 0.75792  0.22542  0.41784  Biso   1.000  C 
  C23      1.0000 0.58887  0.60585  0.81962  Biso   1.000  C 
  C24      1.0000 0.16190  0.21610  0.68909  Biso   1.000  C 
  C25      1.0000 0.31420  0.32825  0.95396  Biso   1.000  C 
  C26      1.0000 0.25791  0.27462  0.91782  Biso   1.000  C 
  C27      1.0000 0.16191  0.78397  0.18912  Biso   1.000  C 
  C28      1.0000 0.66193  0.71602  0.68908  Biso   1.000  C 
  C29      1.0000 0.14715  0.83524  0.35504  Biso   1.000  C 
  C30      1.0000 0.18708  0.83171  0.54921  Biso   1.000  C 
  C31      1.0000 0.64713  0.33521  0.35501  Biso   1.000  C 
  C32      1.0000 0.68706  0.33169  0.54917  Biso   1.000  C 
  C33      1.0000 0.78576  0.27404  0.78187  Biso   1.000  C 
  C34      1.0000 0.58884  0.39412  0.31964  Biso   1.000  C 
  C35      1.0000 0.66190  0.28394  0.18910  Biso   1.000  C 
  C36      1.0000 0.85442  0.83160  0.14781  Biso   1.000  C 
  C37      1.0000 0.24335  0.77803  0.58521  Biso   1.000  C 
  C38      1.0000 0.81425  0.82817  0.95398  Biso   1.000  C 
  C39      1.0000 0.71564  0.77045  0.72091  Biso   1.000  C 
  C40      1.0000 0.91270  0.89056  0.18194  Biso   1.000  C 
  C41      1.0000 0.35438  0.33167  0.14778  Biso   1.000  C 
  C42      1.0000 0.28577  0.77404  0.78190  Biso   1.000  C 
  C43      1.0000 0.08886  0.89415  0.31967  Biso   1.000  C 
  C44      1.0000 0.75795  0.77454  0.91783  Biso   1.000  C 
  C45      1.0000 0.83958  0.78016  0.31341  Biso   1.000  C 
  C46      1.0000 0.74334  0.27801  0.58518  Biso   1.000  C 
  C47      1.0000 0.21560  0.27054  0.72092  Biso   1.000  C 
  C48      1.0000 0.33955  0.28024  0.31339  Biso   1.000  C 
  H1       1.0000 0.77470  0.31464  0.90799  Biso   1.000  H 
  H2       1.0000 0.87178  0.21594  0.96449  Biso   1.000  H 
  H3       1.0000 0.37176  0.28412  0.46449  Biso   1.000  H 
  H4       1.0000 0.37179  0.71594  0.96452  Biso   1.000  H 
  H5       1.0000 0.22675  0.68899  0.09485  Biso   1.000  H 
  H6       1.0000 0.67487  0.62863  0.17476  Biso   1.000  H 
  H7       1.0000 0.12973  0.78864  0.03805  Biso   1.000  H 
  H8       1.0000 0.32614  0.36821  0.82837  Biso   1.000  H 
  H9       1.0000 0.22673  0.31109  0.59482  Biso   1.000  H 
  H10      1.0000 0.72674  0.18895  0.09483  Biso   1.000  H 
  H11      1.0000 0.32617  0.63188  0.32840  Biso   1.000  H 
  H12      1.0000 0.27471  0.81464  0.90803  Biso   1.000  H 
  H13      1.0000 0.17486  0.87135  0.67480  Biso   1.000  H 
  H14      1.0000 0.82619  0.86812  0.82838  Biso   1.000  H 
  H15      1.0000 0.87179  0.78405  0.46451  Biso   1.000  H 
  H16      1.0000 0.72678  0.81100  0.59481  Biso   1.000  H 
  H17      1.0000 0.62971  0.28860  0.03802  Biso   1.000  H 
  H18      1.0000 0.12971  0.21143  0.53800  Biso   1.000  H 
  H19      1.0000 0.17483  0.12871  0.17478  Biso   1.000  H 
  H20      1.0000 0.97640  0.88400  0.72811  Biso   1.000  H 
  H21      1.0000 0.47639  0.38401  0.72807  Biso   1.000  H 
  H22      1.0000 0.67484  0.37133  0.67477  Biso   1.000  H 
  H23      1.0000 0.97639  0.11602  0.22809  Biso   1.000  H 
  H24      1.0000 0.27468  0.18542  0.40801  Biso   1.000  H 
  H25      1.0000 0.77471  0.68534  0.40800  Biso   1.000  H 
  H26      1.0000 0.47641  0.61602  0.22808  Biso   1.000  H 
  H27      1.0000 0.62975  0.71135  0.53799  Biso   1.000  H 
  H28      1.0000 0.82615  0.13184  0.32839  Biso   1.000  H 
  O1       1.0000 0.57303  0.42848  0.47749  Biso   1.000  O 
  O2       1.0000 0.44183  0.59467  0.86824  Biso   1.000  O 
  O3       1.0000 0.55881  0.40589  0.13361  Biso   1.000  O 
  O4       1.0000 0.57305  0.57149  0.97747  Biso   1.000  O 
  O5       1.0000 0.05883  0.90593  0.13364  Biso   1.000  O 
  O6       1.0000 0.99917  0.94239  0.74754  Biso   1.000  O 
  O7       1.0000 0.44181  0.40538  0.36822  Biso   1.000  O 
  O8       1.0000 0.94182  0.90535  0.36826  Biso   1.000  O 
  O9       1.0000 0.49916  0.44238  0.74752  Biso   1.000  O 
  O10      1.0000 0.07303  0.92850  0.47751  Biso   1.000  O 
  O11      1.0000 0.05882  0.09412  0.63360  Biso   1.000  O 
  O12      1.0000 0.42911  0.57793  0.52191  Biso   1.000  O 
  O13      1.0000 0.92910  0.07791  0.52192  Biso   1.000  O 
  O14      1.0000 0.94181  0.09466  0.86825  Biso   1.000  O 
  O15      1.0000 0.55883  0.59409  0.63358  Biso   1.000  O 
  O16      1.0000 0.49918  0.55763  0.24752  Biso   1.000  O 
  O17      1.0000 0.07302  0.07154  0.97748  Biso   1.000  O 
  O18      1.0000 0.42910  0.42213  0.02190  Biso   1.000  O 
  O19      1.0000 0.99916  0.05764  0.24754  Biso   1.000  O 
  O20      1.0000 0.92911  0.92210  0.02193  Biso   1.000  O 
