data_image0
_cell_length_a       23.8926
_cell_length_b       9.46834
_cell_length_c       6.67076
_cell_angle_alpha    89.9756
_cell_angle_beta     103.196
_cell_angle_gamma    89.9982

_symmetry_space_group_name_H-M    "P 1"
_symmetry_int_tables_number       1

loop_
  _symmetry_equiv_pos_as_xyz
  'x, y, z'

loop_
  _atom_site_label
  _atom_site_occupancy
  _atom_site_fract_x
  _atom_site_fract_y
  _atom_site_fract_z
  _atom_site_thermal_displace_type
  _atom_site_B_iso_or_equiv
  _atom_site_type_symbol
  Al1      1.0000 0.50085  0.50130  0.50014  Biso   1.000  Al
  Al2      1.0000 0.00086  0.00179  0.50011  Biso   1.000  Al
  Al3      1.0000 0.00086  0.99814  0.00009  Biso   1.000  Al
  Al4      1.0000 0.50083  0.49816  0.00011  Biso   1.000  Al
  C1       1.0000 0.68152  0.67764  0.04804  Biso   1.000  C 
  C2       1.0000 0.85649  0.20225  0.64372  Biso   1.000  C 
  C3       1.0000 0.81929  0.17889  0.45431  Biso   1.000  C 
  C4       1.0000 0.72131  0.19284  0.22745  Biso   1.000  C 
  C5       1.0000 0.76060  0.21718  0.41939  Biso   1.000  C 
  C6       1.0000 0.83605  0.26697  0.80555  Biso   1.000  C 
  C7       1.0000 0.35649  0.70140  0.64373  Biso   1.000  C 
  C8       1.0000 0.31926  0.67840  0.45424  Biso   1.000  C 
  C9       1.0000 0.22126  0.69300  0.22755  Biso   1.000  C 
  C10      1.0000 0.26060  0.71694  0.41951  Biso   1.000  C 
  C11      1.0000 0.77938  0.69237  0.27508  Biso   1.000  C 
  C12      1.0000 0.24013  0.21694  0.08326  Biso   1.000  C 
  C13      1.0000 0.33610  0.76581  0.80588  Biso   1.000  C 
  C14      1.0000 0.41701  0.34973  0.17994  Biso   1.000  C 
  C15      1.0000 0.14449  0.19990  0.85828  Biso   1.000  C 
  C16      1.0000 0.18156  0.17775  0.04828  Biso   1.000  C 
  C17      1.0000 0.41708  0.65003  0.67980  Biso   1.000  C 
  C18      1.0000 0.27941  0.19291  0.27534  Biso   1.000  C 
  C19      1.0000 0.08419  0.14661  0.82153  Biso   1.000  C 
  C20      1.0000 0.16476  0.26485  0.69622  Biso   1.000  C 
  C21      1.0000 0.74011  0.71664  0.08306  Biso   1.000  C 
  C22      1.0000 0.91705  0.15070  0.67990  Biso   1.000  C 
  C23      1.0000 0.58415  0.64673  0.82140  Biso   1.000  C 
  C24      1.0000 0.64447  0.69991  0.85802  Biso   1.000  C 
  C25      1.0000 0.31921  0.32159  0.95427  Biso   1.000  C 
  C26      1.0000 0.33595  0.23432  0.30608  Biso   1.000  C 
  C27      1.0000 0.16480  0.73533  0.19646  Biso   1.000  C 
  C28      1.0000 0.66477  0.76475  0.69597  Biso   1.000  C 
  C29      1.0000 0.14456  0.80029  0.35851  Biso   1.000  C 
  C30      1.0000 0.18167  0.82253  0.54838  Biso   1.000  C 
  C31      1.0000 0.24025  0.78333  0.58322  Biso   1.000  C 
  C32      1.0000 0.64449  0.29981  0.35810  Biso   1.000  C 
  C33      1.0000 0.68157  0.32236  0.54794  Biso   1.000  C 
  C34      1.0000 0.77948  0.30820  0.77473  Biso   1.000  C 
  C35      1.0000 0.58414  0.35276  0.32148  Biso   1.000  C 
  C36      1.0000 0.66480  0.23486  0.19619  Biso   1.000  C 
  C37      1.0000 0.08423  0.85343  0.32179  Biso   1.000  C 
  C38      1.0000 0.85639  0.79822  0.14384  Biso   1.000  C 
  C39      1.0000 0.81920  0.82136  0.95429  Biso   1.000  C 
  C40      1.0000 0.72125  0.80701  0.72728  Biso   1.000  C 
  C41      1.0000 0.91698  0.84953  0.17998  Biso   1.000  C 
  C42      1.0000 0.35640  0.29860  0.14387  Biso   1.000  C 
  C43      1.0000 0.27957  0.80736  0.77517  Biso   1.000  C 
  C44      1.0000 0.76052  0.78298  0.91940  Biso   1.000  C 
  C45      1.0000 0.83594  0.73372  0.30590  Biso   1.000  C 
  C46      1.0000 0.26053  0.28321  0.91949  Biso   1.000  C 
  C47      1.0000 0.74019  0.28362  0.58291  Biso   1.000  C 
  C48      1.0000 0.22122  0.30716  0.72740  Biso   1.000  C 
  H1       1.0000 0.86599  0.28331  0.95341  Biso   1.000  H 
  H2       1.0000 0.16548  0.87296  0.67086  Biso   1.000  H 
  H3       1.0000 0.36588  0.21853  0.45414  Biso   1.000  H 
  H4       1.0000 0.36606  0.78162  0.95383  Biso   1.000  H 
  H5       1.0000 0.23680  0.64128  0.10442  Biso   1.000  H 
  H6       1.0000 0.33540  0.62801  0.33162  Biso   1.000  H 
  H7       1.0000 0.13473  0.72035  0.04843  Biso   1.000  H 
  H8       1.0000 0.33538  0.37187  0.83158  Biso   1.000  H 
  H9       1.0000 0.23681  0.35884  0.60426  Biso   1.000  H 
  H10      1.0000 0.66524  0.62729  0.17046  Biso   1.000  H 
  H11      1.0000 0.73693  0.14111  0.10450  Biso   1.000  H 
  H12      1.0000 0.83537  0.87183  0.83174  Biso   1.000  H 
  H13      1.0000 0.26396  0.85877  0.89839  Biso   1.000  H 
  H14      1.0000 0.76382  0.35978  0.89769  Biso   1.000  H 
  H15      1.0000 0.63478  0.21965  0.04810  Biso   1.000  H 
  H16      1.0000 0.86586  0.71759  0.45386  Biso   1.000  H 
  H17      1.0000 0.13473  0.27984  0.54809  Biso   1.000  H 
  H18      1.0000 0.66529  0.37276  0.67025  Biso   1.000  H 
  H19      1.0000 0.16533  0.12736  0.17078  Biso   1.000  H 
  H20      1.0000 0.97996  0.82204  0.72921  Biso   1.000  H 
  H21      1.0000 0.48296  0.31893  0.73231  Biso   1.000  H 
  H22      1.0000 0.73687  0.85866  0.60420  Biso   1.000  H 
  H23      1.0000 0.98001  0.17796  0.22903  Biso   1.000  H 
  H24      1.0000 0.26376  0.14157  0.39856  Biso   1.000  H 
  H25      1.0000 0.76372  0.64091  0.39817  Biso   1.000  H 
  H26      1.0000 0.83546  0.12828  0.33192  Biso   1.000  H 
  H27      1.0000 0.48288  0.68041  0.23199  Biso   1.000  H 
  H28      1.0000 0.63477  0.77976  0.54777  Biso   1.000  H 
  O1       1.0000 0.55557  0.36097  0.13543  Biso   1.000  O 
  O2       1.0000 0.56573  0.61001  0.97823  Biso   1.000  O 
  O3       1.0000 0.05563  0.86140  0.13576  Biso   1.000  O 
  O4       1.0000 0.49976  0.41250  0.74849  Biso   1.000  O 
  O5       1.0000 0.99939  0.91253  0.74805  Biso   1.000  O 
  O6       1.0000 0.44524  0.36081  0.36649  Biso   1.000  O 
  O7       1.0000 0.94513  0.86096  0.36658  Biso   1.000  O 
  O8       1.0000 0.56572  0.38941  0.47830  Biso   1.000  O 
  O9       1.0000 0.43595  0.38214  0.02197  Biso   1.000  O 
  O10      1.0000 0.99940  0.08741  0.24795  Biso   1.000  O 
  O11      1.0000 0.06577  0.10952  0.97820  Biso   1.000  O 
  O12      1.0000 0.05561  0.13858  0.63550  Biso   1.000  O 
  O13      1.0000 0.43600  0.61748  0.52189  Biso   1.000  O 
  O14      1.0000 0.93597  0.11820  0.52192  Biso   1.000  O 
  O15      1.0000 0.94519  0.13915  0.86649  Biso   1.000  O 
  O16      1.0000 0.06578  0.89043  0.47842  Biso   1.000  O 
  O17      1.0000 0.55560  0.63841  0.63535  Biso   1.000  O 
  O18      1.0000 0.49976  0.58691  0.24842  Biso   1.000  O 
  O19      1.0000 0.44530  0.63884  0.86636  Biso   1.000  O 
  O20      1.0000 0.93594  0.88189  0.02200  Biso   1.000  O 
