data_image0
_cell_length_a       24.4044
_cell_length_b       7.91966
_cell_length_c       6.67998
_cell_angle_alpha    90.0568
_cell_angle_beta     104.646
_cell_angle_gamma    89.9787

_symmetry_space_group_name_H-M    "P 1"
_symmetry_int_tables_number       1

loop_
  _symmetry_equiv_pos_as_xyz
  'x, y, z'

loop_
  _atom_site_label
  _atom_site_occupancy
  _atom_site_fract_x
  _atom_site_fract_y
  _atom_site_fract_z
  _atom_site_thermal_displace_type
  _atom_site_B_iso_or_equiv
  _atom_site_type_symbol
  Al1      1.0000 0.49982  0.50077  0.49962  Biso   1.000  Al
  Al2      1.0000 0.99984  0.00021  0.50043  Biso   1.000  Al
  Al3      1.0000 0.99986  0.99980  0.00040  Biso   1.000  Al
  Al4      1.0000 0.49985  0.50024  0.99966  Biso   1.000  Al
  C1       1.0000 0.16323  0.70512  0.20125  Biso   1.000  C 
  C2       1.0000 0.66327  0.79522  0.70088  Biso   1.000  C 
  C3       1.0000 0.14324  0.77739  0.36443  Biso   1.000  C 
  C4       1.0000 0.18089  0.81528  0.55210  Biso   1.000  C 
  C5       1.0000 0.08253  0.82744  0.32895  Biso   1.000  C 
  C6       1.0000 0.23967  0.78623  0.58315  Biso   1.000  C 
  C7       1.0000 0.64327  0.27776  0.36383  Biso   1.000  C 
  C8       1.0000 0.68090  0.31583  0.55150  Biso   1.000  C 
  C9       1.0000 0.77938  0.32763  0.77231  Biso   1.000  C 
  C10      1.0000 0.58256  0.32792  0.32820  Biso   1.000  C 
  C11      1.0000 0.66331  0.20507  0.20097  Biso   1.000  C 
  C12      1.0000 0.22001  0.32741  0.72855  Biso   1.000  C 
  C13      1.0000 0.85631  0.77714  0.13606  Biso   1.000  C 
  C14      1.0000 0.81864  0.81546  0.94862  Biso   1.000  C 
  C15      1.0000 0.72010  0.82790  0.72825  Biso   1.000  C 
  C16      1.0000 0.91706  0.82677  0.17166  Biso   1.000  C 
  C17      1.0000 0.35637  0.27752  0.13570  Biso   1.000  C 
  C18      1.0000 0.75985  0.78656  0.91741  Biso   1.000  C 
  C19      1.0000 0.83627  0.70465  0.29887  Biso   1.000  C 
  C20      1.0000 0.25985  0.28644  0.91765  Biso   1.000  C 
  C21      1.0000 0.73967  0.28653  0.58292  Biso   1.000  C 
  C22      1.0000 0.27943  0.82729  0.77246  Biso   1.000  C 
  C23      1.0000 0.31861  0.31553  0.94837  Biso   1.000  C 
  C24      1.0000 0.33645  0.20524  0.29888  Biso   1.000  C 
  C25      1.0000 0.58253  0.67299  0.82837  Biso   1.000  C 
  C26      1.0000 0.23982  0.21331  0.08289  Biso   1.000  C 
  C27      1.0000 0.68094  0.68440  0.05116  Biso   1.000  C 
  C28      1.0000 0.85627  0.22252  0.63678  Biso   1.000  C 
  C29      1.0000 0.81862  0.18418  0.44923  Biso   1.000  C 
  C30      1.0000 0.72012  0.17198  0.22857  Biso   1.000  C 
  C31      1.0000 0.75984  0.21318  0.41796  Biso   1.000  C 
  C32      1.0000 0.83620  0.29484  0.79978  Biso   1.000  C 
  C33      1.0000 0.35627  0.72271  0.63629  Biso   1.000  C 
  C34      1.0000 0.31858  0.68451  0.44878  Biso   1.000  C 
  C35      1.0000 0.22004  0.67223  0.22850  Biso   1.000  C 
  C36      1.0000 0.25979  0.71328  0.41786  Biso   1.000  C 
  C37      1.0000 0.91706  0.17315  0.67217  Biso   1.000  C 
  C38      1.0000 0.77946  0.67193  0.27146  Biso   1.000  C 
  C39      1.0000 0.33625  0.79474  0.79956  Biso   1.000  C 
  C40      1.0000 0.41710  0.32726  0.17093  Biso   1.000  C 
  C41      1.0000 0.14331  0.22209  0.86473  Biso   1.000  C 
  C42      1.0000 0.18106  0.18413  0.05213  Biso   1.000  C 
  C43      1.0000 0.41704  0.67343  0.67139  Biso   1.000  C 
  C44      1.0000 0.27967  0.17235  0.27197  Biso   1.000  C 
  C45      1.0000 0.08259  0.17224  0.82936  Biso   1.000  C 
  C46      1.0000 0.64327  0.72275  0.86376  Biso   1.000  C 
  C47      1.0000 0.16323  0.29440  0.70156  Biso   1.000  C 
  C48      1.0000 0.73971  0.71329  0.08231  Biso   1.000  C 
  H1       1.0000 0.66497  0.37261  0.67449  Biso   1.000  H 
  H2       1.0000 0.73551  0.88502  0.60424  Biso   1.000  H 
  H3       1.0000 0.16525  0.12761  0.17544  Biso   1.000  H 
  H4       1.0000 0.99661  0.77445  0.74665  Biso   1.000  H 
  H5       1.0000 0.49728  0.27482  0.74645  Biso   1.000  H 
  H6       1.0000 0.63288  0.82289  0.55457  Biso   1.000  H 
  H7       1.0000 0.99638  0.22547  0.24699  Biso   1.000  H 
  H8       1.0000 0.26436  0.11533  0.39630  Biso   1.000  H 
  H9       1.0000 0.76404  0.61476  0.39544  Biso   1.000  H 
  H10      1.0000 0.83454  0.12753  0.32610  Biso   1.000  H 
  H11      1.0000 0.49711  0.72612  0.24684  Biso   1.000  H 
  H12      1.0000 0.63295  0.17757  0.05447  Biso   1.000  H 
  H13      1.0000 0.86665  0.67691  0.44520  Biso   1.000  H 
  H14      1.0000 0.13276  0.32165  0.55528  Biso   1.000  H 
  H15      1.0000 0.76394  0.38473  0.89643  Biso   1.000  H 
  H16      1.0000 0.83454  0.87209  0.82559  Biso   1.000  H 
  H17      1.0000 0.86655  0.32249  0.94625  Biso   1.000  H 
  H18      1.0000 0.16500  0.87171  0.67539  Biso   1.000  H 
  H19      1.0000 0.36690  0.17782  0.44515  Biso   1.000  H 
  H20      1.0000 0.36664  0.82232  0.94595  Biso   1.000  H 
  H21      1.0000 0.23544  0.61523  0.10426  Biso   1.000  H 
  H22      1.0000 0.26403  0.88417  0.89681  Biso   1.000  H 
  H23      1.0000 0.13282  0.67778  0.05482  Biso   1.000  H 
  H24      1.0000 0.33441  0.37207  0.82505  Biso   1.000  H 
  H25      1.0000 0.23533  0.38444  0.60427  Biso   1.000  H 
  H26      1.0000 0.33447  0.62818  0.32539  Biso   1.000  H 
  H27      1.0000 0.66503  0.62778  0.17416  Biso   1.000  H 
  H28      1.0000 0.73555  0.11468  0.10456  Biso   1.000  H 
  O1       1.0000 0.55273  0.66832  0.64140  Biso   1.000  O 
  O2       1.0000 0.06488  0.86756  0.48643  Biso   1.000  O 
  O3       1.0000 0.94680  0.16803  0.85928  Biso   1.000  O 
  O4       1.0000 0.99972  0.10369  0.25035  Biso   1.000  O 
  O5       1.0000 0.93477  0.13382  0.51447  Biso   1.000  O 
  O6       1.0000 0.43471  0.63409  0.51358  Biso   1.000  O 
  O7       1.0000 0.05280  0.16752  0.64239  Biso   1.000  O 
  O8       1.0000 0.06497  0.13218  0.98680  Biso   1.000  O 
  O9       1.0000 0.44683  0.66837  0.85843  Biso   1.000  O 
  O10      1.0000 0.43477  0.36676  0.01330  Biso   1.000  O 
  O11      1.0000 0.55283  0.33279  0.14117  Biso   1.000  O 
  O12      1.0000 0.56491  0.36811  0.48565  Biso   1.000  O 
  O13      1.0000 0.94676  0.83201  0.35882  Biso   1.000  O 
  O14      1.0000 0.44685  0.33253  0.35800  Biso   1.000  O 
  O15      1.0000 0.99968  0.89629  0.75006  Biso   1.000  O 
  O16      1.0000 0.49974  0.39678  0.74931  Biso   1.000  O 
  O17      1.0000 0.05278  0.83232  0.14194  Biso   1.000  O 
  O18      1.0000 0.56493  0.63285  0.98586  Biso   1.000  O 
  O19      1.0000 0.49973  0.60419  0.24951  Biso   1.000  O 
  O20      1.0000 0.93478  0.86623  0.01411  Biso   1.000  O 
