data_image0
_cell_length_a       19.5912
_cell_length_b       17.4516
_cell_length_c       6.76452
_cell_angle_alpha    90.0004
_cell_angle_beta     104.452
_cell_angle_gamma    89.9999

_symmetry_space_group_name_H-M    "P 1"
_symmetry_int_tables_number       1

loop_
  _symmetry_equiv_pos_as_xyz
  'x, y, z'

loop_
  _atom_site_label
  _atom_site_occupancy
  _atom_site_fract_x
  _atom_site_fract_y
  _atom_site_fract_z
  _atom_site_thermal_displace_type
  _atom_site_B_iso_or_equiv
  _atom_site_type_symbol
  Al1      1.0000 0.50082  0.50032  0.50024  Biso   1.000  Al
  Al2      1.0000 0.00082  0.00031  0.50026  Biso   1.000  Al
  Al3      1.0000 0.00081  0.99970  0.00025  Biso   1.000  Al
  Al4      1.0000 0.50082  0.49970  0.00024  Biso   1.000  Al
  C1       1.0000 0.16115  0.80229  0.19066  Biso   1.000  C 
  C2       1.0000 0.66116  0.69772  0.69065  Biso   1.000  C 
  C3       1.0000 0.15119  0.84596  0.35892  Biso   1.000  C 
  C4       1.0000 0.19303  0.83139  0.55309  Biso   1.000  C 
  C5       1.0000 0.65118  0.34595  0.35891  Biso   1.000  C 
  C6       1.0000 0.69302  0.33138  0.55308  Biso   1.000  C 
  C7       1.0000 0.79056  0.25852  0.78286  Biso   1.000  C 
  C8       1.0000 0.59492  0.40649  0.32361  Biso   1.000  C 
  C9       1.0000 0.66113  0.30227  0.19066  Biso   1.000  C 
  C10      1.0000 0.85058  0.84249  0.14340  Biso   1.000  C 
  C11      1.0000 0.80847  0.82791  0.94946  Biso   1.000  C 
  C12      1.0000 0.25541  0.27058  0.91617  Biso   1.000  C 
  C13      1.0000 0.71114  0.75492  0.71930  Biso   1.000  C 
  C14      1.0000 0.90663  0.90336  0.17811  Biso   1.000  C 
  C15      1.0000 0.35056  0.34252  0.14338  Biso   1.000  C 
  C16      1.0000 0.29057  0.75853  0.78285  Biso   1.000  C 
  C17      1.0000 0.09492  0.90650  0.32363  Biso   1.000  C 
  C18      1.0000 0.75544  0.77054  0.91617  Biso   1.000  C 
  C19      1.0000 0.84068  0.79852  0.31123  Biso   1.000  C 
  C20      1.0000 0.21110  0.25495  0.71930  Biso   1.000  C 
  C21      1.0000 0.34066  0.29855  0.31122  Biso   1.000  C 
  C22      1.0000 0.24612  0.77408  0.58620  Biso   1.000  C 
  C23      1.0000 0.30844  0.32795  0.94945  Biso   1.000  C 
  C24      1.0000 0.74611  0.27406  0.58620  Biso   1.000  C 
  C25      1.0000 0.59493  0.59351  0.82362  Biso   1.000  C 
  C26      1.0000 0.16112  0.19776  0.69067  Biso   1.000  C 
  C27      1.0000 0.69304  0.66862  0.05309  Biso   1.000  C 
  C28      1.0000 0.85056  0.15751  0.64339  Biso   1.000  C 
  C29      1.0000 0.80845  0.17208  0.44945  Biso   1.000  C 
  C30      1.0000 0.71112  0.24507  0.21929  Biso   1.000  C 
  C31      1.0000 0.35058  0.65752  0.64338  Biso   1.000  C 
  C32      1.0000 0.30847  0.67210  0.44943  Biso   1.000  C 
  C33      1.0000 0.21113  0.74509  0.21929  Biso   1.000  C 
  C34      1.0000 0.25544  0.72947  0.41615  Biso   1.000  C 
  C35      1.0000 0.79057  0.74147  0.28286  Biso   1.000  C 
  C36      1.0000 0.34068  0.70149  0.81121  Biso   1.000  C 
  C37      1.0000 0.84067  0.20148  0.81122  Biso   1.000  C 
  C38      1.0000 0.40662  0.40338  0.17809  Biso   1.000  C 
  C39      1.0000 0.15116  0.15408  0.85892  Biso   1.000  C 
  C40      1.0000 0.19300  0.16866  0.05310  Biso   1.000  C 
  C41      1.0000 0.40663  0.59666  0.67808  Biso   1.000  C 
  C42      1.0000 0.90662  0.09664  0.67810  Biso   1.000  C 
  C43      1.0000 0.75542  0.22945  0.41616  Biso   1.000  C 
  C44      1.0000 0.29054  0.24151  0.28287  Biso   1.000  C 
  C45      1.0000 0.09491  0.09353  0.82363  Biso   1.000  C 
  C46      1.0000 0.74613  0.72593  0.08621  Biso   1.000  C 
  C47      1.0000 0.24609  0.22597  0.08622  Biso   1.000  C 
  C48      1.0000 0.65120  0.65405  0.85891  Biso   1.000  C 
  H1       1.0000 0.62784  0.31478  0.03936  Biso   1.000  H 
  H2       1.0000 0.12783  0.18524  0.53938  Biso   1.000  H 
  H3       1.0000 0.18493  0.13530  0.18185  Biso   1.000  H 
  H4       1.0000 0.97513  0.90442  0.73057  Biso   1.000  H 
  H5       1.0000 0.47512  0.40443  0.73054  Biso   1.000  H 
  H6       1.0000 0.47513  0.59559  0.23055  Biso   1.000  H 
  H7       1.0000 0.97511  0.09558  0.23057  Biso   1.000  H 
  H8       1.0000 0.28425  0.20728  0.41215  Biso   1.000  H 
  H9       1.0000 0.78428  0.70724  0.41215  Biso   1.000  H 
  H10      1.0000 0.62787  0.68520  0.53935  Biso   1.000  H 
  H11      1.0000 0.81602  0.13847  0.32051  Biso   1.000  H 
  H12      1.0000 0.71750  0.78912  0.59004  Biso   1.000  H 
  H13      1.0000 0.68495  0.36474  0.68183  Biso   1.000  H 
  H14      1.0000 0.87410  0.81043  0.46263  Biso   1.000  H 
  H15      1.0000 0.28428  0.79276  0.91214  Biso   1.000  H 
  H16      1.0000 0.18496  0.86475  0.68185  Biso   1.000  H 
  H17      1.0000 0.81605  0.86151  0.82052  Biso   1.000  H 
  H18      1.0000 0.78426  0.29276  0.91213  Biso   1.000  H 
  H19      1.0000 0.37408  0.31046  0.46262  Biso   1.000  H 
  H20      1.0000 0.37410  0.68958  0.96260  Biso   1.000  H 
  H21      1.0000 0.21749  0.71089  0.09002  Biso   1.000  H 
  H22      1.0000 0.87409  0.18958  0.96261  Biso   1.000  H 
  H23      1.0000 0.12786  0.81481  0.03936  Biso   1.000  H 
  H24      1.0000 0.31602  0.36155  0.82051  Biso   1.000  H 
  H25      1.0000 0.21746  0.28916  0.59004  Biso   1.000  H 
  H26      1.0000 0.71748  0.21087  0.09003  Biso   1.000  H 
  H27      1.0000 0.31604  0.63850  0.32050  Biso   1.000  H 
  H28      1.0000 0.68496  0.63526  0.18183  Biso   1.000  H 
  O1       1.0000 0.06692  0.07564  0.63811  Biso   1.000  O 
  O2       1.0000 0.42350  0.43086  0.02167  Biso   1.000  O 
  O3       1.0000 0.07818  0.06517  0.97879  Biso   1.000  O 
  O4       1.0000 0.49876  0.54633  0.24846  Biso   1.000  O 
  O5       1.0000 0.56693  0.57563  0.63809  Biso   1.000  O 
  O6       1.0000 0.93391  0.07759  0.86371  Biso   1.000  O 
  O7       1.0000 0.92350  0.06916  0.52169  Biso   1.000  O 
  O8       1.0000 0.42351  0.56918  0.52167  Biso   1.000  O 
  O9       1.0000 0.07819  0.93486  0.47879  Biso   1.000  O 
  O10      1.0000 0.57820  0.56515  0.97878  Biso   1.000  O 
  O11      1.0000 0.93392  0.92242  0.36371  Biso   1.000  O 
  O12      1.0000 0.43391  0.42243  0.36370  Biso   1.000  O 
  O13      1.0000 0.99876  0.95368  0.74848  Biso   1.000  O 
  O14      1.0000 0.06693  0.92438  0.13811  Biso   1.000  O 
  O15      1.0000 0.56693  0.42437  0.13809  Biso   1.000  O 
  O16      1.0000 0.43393  0.57760  0.86370  Biso   1.000  O 
  O17      1.0000 0.57819  0.43485  0.47877  Biso   1.000  O 
  O18      1.0000 0.99875  0.04633  0.24847  Biso   1.000  O 
  O19      1.0000 0.49876  0.45368  0.74846  Biso   1.000  O 
  O20      1.0000 0.92350  0.93084  0.02169  Biso   1.000  O 
