data_image0
_cell_length_a       23.2752
_cell_length_b       11.1654
_cell_length_c       6.65787
_cell_angle_alpha    89.9847
_cell_angle_beta     102.955
_cell_angle_gamma    90.0023

_symmetry_space_group_name_H-M    "P 1"
_symmetry_int_tables_number       1

loop_
  _symmetry_equiv_pos_as_xyz
  'x, y, z'

loop_
  _atom_site_label
  _atom_site_occupancy
  _atom_site_fract_x
  _atom_site_fract_y
  _atom_site_fract_z
  _atom_site_thermal_displace_type
  _atom_site_B_iso_or_equiv
  _atom_site_type_symbol
  Al1      1.0000 0.50085  0.50156  0.50029  Biso   1.000  Al
  Al2      1.0000 0.00086  0.00156  0.50028  Biso   1.000  Al
  Al3      1.0000 0.00085  0.99851  0.00026  Biso   1.000  Al
  Al4      1.0000 0.50085  0.49849  0.00028  Biso   1.000  Al
  C1       1.0000 0.16359  0.75703  0.19316  Biso   1.000  C 
  C2       1.0000 0.66363  0.74289  0.69310  Biso   1.000  C 
  C3       1.0000 0.14497  0.81619  0.35656  Biso   1.000  C 
  C4       1.0000 0.18311  0.82736  0.54798  Biso   1.000  C 
  C5       1.0000 0.24115  0.78147  0.58358  Biso   1.000  C 
  C6       1.0000 0.64495  0.31617  0.35656  Biso   1.000  C 
  C7       1.0000 0.68309  0.32736  0.54796  Biso   1.000  C 
  C8       1.0000 0.78153  0.29318  0.77746  Biso   1.000  C 
  C9       1.0000 0.58516  0.37156  0.32073  Biso   1.000  C 
  C10      1.0000 0.66356  0.25698  0.19318  Biso   1.000  C 
  C11      1.0000 0.85620  0.81318  0.14579  Biso   1.000  C 
  C12      1.0000 0.33737  0.25442  0.30909  Biso   1.000  C 
  C13      1.0000 0.81795  0.82480  0.95457  Biso   1.000  C 
  C14      1.0000 0.71943  0.79083  0.72480  Biso   1.000  C 
  C15      1.0000 0.91615  0.86786  0.18117  Biso   1.000  C 
  C16      1.0000 0.35615  0.31338  0.14580  Biso   1.000  C 
  C17      1.0000 0.28153  0.79316  0.77750  Biso   1.000  C 
  C18      1.0000 0.75982  0.77922  0.91879  Biso   1.000  C 
  C19      1.0000 0.83743  0.75418  0.30905  Biso   1.000  C 
  C20      1.0000 0.74114  0.28148  0.58355  Biso   1.000  C 
  C21      1.0000 0.21939  0.29102  0.72482  Biso   1.000  C 
  C22      1.0000 0.08519  0.87160  0.32071  Biso   1.000  C 
  C23      1.0000 0.31790  0.32495  0.95455  Biso   1.000  C 
  C24      1.0000 0.25977  0.27941  0.91880  Biso   1.000  C 
  C25      1.0000 0.58521  0.62838  0.82067  Biso   1.000  C 
  C26      1.0000 0.64500  0.68375  0.85653  Biso   1.000  C 
  C27      1.0000 0.68312  0.67254  0.04796  Biso   1.000  C 
  C28      1.0000 0.85617  0.18675  0.64572  Biso   1.000  C 
  C29      1.0000 0.81791  0.17513  0.45453  Biso   1.000  C 
  C30      1.0000 0.71937  0.20904  0.22485  Biso   1.000  C 
  C31      1.0000 0.83741  0.24575  0.80896  Biso   1.000  C 
  C32      1.0000 0.35619  0.68676  0.64573  Biso   1.000  C 
  C33      1.0000 0.31792  0.67515  0.45454  Biso   1.000  C 
  C34      1.0000 0.21939  0.70909  0.22485  Biso   1.000  C 
  C35      1.0000 0.25979  0.72070  0.41879  Biso   1.000  C 
  C36      1.0000 0.78155  0.70672  0.27753  Biso   1.000  C 
  C37      1.0000 0.75978  0.22069  0.41878  Biso   1.000  C 
  C38      1.0000 0.33742  0.74572  0.80899  Biso   1.000  C 
  C39      1.0000 0.41611  0.36797  0.18115  Biso   1.000  C 
  C40      1.0000 0.14496  0.18386  0.85651  Biso   1.000  C 
  C41      1.0000 0.18308  0.17270  0.04797  Biso   1.000  C 
  C42      1.0000 0.41615  0.63217  0.68109  Biso   1.000  C 
  C43      1.0000 0.91613  0.13213  0.68107  Biso   1.000  C 
  C44      1.0000 0.28149  0.20697  0.27758  Biso   1.000  C 
  C45      1.0000 0.08518  0.12843  0.82063  Biso   1.000  C 
  C46      1.0000 0.16359  0.24304  0.69310  Biso   1.000  C 
  C47      1.0000 0.74117  0.71841  0.08358  Biso   1.000  C 
  C48      1.0000 0.24112  0.21864  0.08362  Biso   1.000  C 
  H1       1.0000 0.13278  0.24946  0.54385  Biso   1.000  H 
  H2       1.0000 0.66808  0.37329  0.67143  Biso   1.000  H 
  H3       1.0000 0.16805  0.12678  0.17146  Biso   1.000  H 
  H4       1.0000 0.97981  0.84875  0.72953  Biso   1.000  H 
  H5       1.0000 0.47981  0.34875  0.72954  Biso   1.000  H 
  H6       1.0000 0.83282  0.12894  0.33107  Biso   1.000  H 
  H7       1.0000 0.97979  0.15130  0.22939  Biso   1.000  H 
  H8       1.0000 0.26715  0.16000  0.40160  Biso   1.000  H 
  H9       1.0000 0.76722  0.65972  0.40153  Biso   1.000  H 
  H10      1.0000 0.47986  0.65135  0.22947  Biso   1.000  H 
  H11      1.0000 0.63281  0.74931  0.54385  Biso   1.000  H 
  H12      1.0000 0.86817  0.74705  0.45828  Biso   1.000  H 
  H13      1.0000 0.73370  0.83786  0.60067  Biso   1.000  H 
  H14      1.0000 0.63273  0.25052  0.04397  Biso   1.000  H 
  H15      1.0000 0.83286  0.87100  0.83111  Biso   1.000  H 
  H16      1.0000 0.26721  0.84014  0.90148  Biso   1.000  H 
  H17      1.0000 0.76721  0.34018  0.90144  Biso   1.000  H 
  H18      1.0000 0.86817  0.25291  0.95814  Biso   1.000  H 
  H19      1.0000 0.36811  0.24729  0.45831  Biso   1.000  H 
  H20      1.0000 0.36817  0.75287  0.95819  Biso   1.000  H 
  H21      1.0000 0.23364  0.66205  0.10073  Biso   1.000  H 
  H22      1.0000 0.16809  0.87329  0.67145  Biso   1.000  H 
  H23      1.0000 0.13276  0.75062  0.04393  Biso   1.000  H 
  H24      1.0000 0.33282  0.37112  0.83107  Biso   1.000  H 
  H25      1.0000 0.23365  0.33806  0.60070  Biso   1.000  H 
  H26      1.0000 0.66811  0.62659  0.17144  Biso   1.000  H 
  H27      1.0000 0.73361  0.16198  0.10074  Biso   1.000  H 
  H28      1.0000 0.33283  0.62897  0.33108  Biso   1.000  H 
  O1       1.0000 0.06762  0.09243  0.97808  Biso   1.000  O 
  O2       1.0000 0.49946  0.57428  0.24814  Biso   1.000  O 
  O3       1.0000 0.55611  0.61920  0.63483  Biso   1.000  O 
  O4       1.0000 0.06763  0.90761  0.47813  Biso   1.000  O 
  O5       1.0000 0.94458  0.11945  0.86754  Biso   1.000  O 
  O6       1.0000 0.93430  0.10005  0.52215  Biso   1.000  O 
  O7       1.0000 0.43431  0.60009  0.52216  Biso   1.000  O 
  O8       1.0000 0.05609  0.11923  0.63479  Biso   1.000  O 
  O9       1.0000 0.99944  0.07428  0.24811  Biso   1.000  O 
  O10      1.0000 0.49942  0.42580  0.74815  Biso   1.000  O 
  O11      1.0000 0.56762  0.40758  0.47817  Biso   1.000  O 
  O12      1.0000 0.94458  0.88058  0.36762  Biso   1.000  O 
  O13      1.0000 0.44456  0.38065  0.36759  Biso   1.000  O 
  O14      1.0000 0.99943  0.92579  0.74815  Biso   1.000  O 
  O15      1.0000 0.05608  0.88080  0.13486  Biso   1.000  O 
  O16      1.0000 0.56763  0.59238  0.97812  Biso   1.000  O 
  O17      1.0000 0.55605  0.38072  0.13489  Biso   1.000  O 
  O18      1.0000 0.44460  0.61950  0.86755  Biso   1.000  O 
  O19      1.0000 0.43428  0.40004  0.02219  Biso   1.000  O 
  O20      1.0000 0.93431  0.89998  0.02222  Biso   1.000  O 
