data_image0
_cell_length_a       24.6915
_cell_length_b       7.22788
_cell_length_c       6.65087
_cell_angle_alpha    90.0626
_cell_angle_beta     106.373
_cell_angle_gamma    90.0139

_symmetry_space_group_name_H-M    "P 1"
_symmetry_int_tables_number       1

loop_
  _symmetry_equiv_pos_as_xyz
  'x, y, z'

loop_
  _atom_site_label
  _atom_site_occupancy
  _atom_site_fract_x
  _atom_site_fract_y
  _atom_site_fract_z
  _atom_site_thermal_displace_type
  _atom_site_B_iso_or_equiv
  _atom_site_type_symbol
  Al1      1.0000 0.49975  0.50018  0.50129  Biso   1.000  Al
  Al2      1.0000 0.99970  0.99992  0.49882  Biso   1.000  Al
  Al3      1.0000 0.99970  0.99981  0.99879  Biso   1.000  Al
  Al4      1.0000 0.49975  0.50049  0.00130  Biso   1.000  Al
  C1       1.0000 0.68208  0.69280  0.06069  Biso   1.000  C 
  C2       1.0000 0.85646  0.23187  0.62939  Biso   1.000  C 
  C3       1.0000 0.81731  0.19223  0.43947  Biso   1.000  C 
  C4       1.0000 0.71763  0.17343  0.22159  Biso   1.000  C 
  C5       1.0000 0.91717  0.18527  0.66137  Biso   1.000  C 
  C6       1.0000 0.75884  0.21567  0.41343  Biso   1.000  C 
  C7       1.0000 0.83823  0.29977  0.80018  Biso   1.000  C 
  C8       1.0000 0.35643  0.73195  0.63095  Biso   1.000  C 
  C9       1.0000 0.31746  0.69212  0.44067  Biso   1.000  C 
  C10      1.0000 0.21789  0.67321  0.22157  Biso   1.000  C 
  C11      1.0000 0.25894  0.71548  0.41376  Biso   1.000  C 
  C12      1.0000 0.74056  0.71598  0.08657  Biso   1.000  C 
  C13      1.0000 0.78177  0.67344  0.27811  Biso   1.000  C 
  C14      1.0000 0.33797  0.79987  0.80123  Biso   1.000  C 
  C15      1.0000 0.41723  0.31466  0.16322  Biso   1.000  C 
  C16      1.0000 0.14291  0.23238  0.86975  Biso   1.000  C 
  C17      1.0000 0.18193  0.19253  0.05977  Biso   1.000  C 
  C18      1.0000 0.28152  0.17335  0.27832  Biso   1.000  C 
  C19      1.0000 0.08219  0.18540  0.83704  Biso   1.000  C 
  C20      1.0000 0.64292  0.73261  0.87100  Biso   1.000  C 
  C21      1.0000 0.16129  0.30062  0.69960  Biso   1.000  C 
  C22      1.0000 0.41719  0.68551  0.66358  Biso   1.000  C 
  C23      1.0000 0.58221  0.68592  0.83898  Biso   1.000  C 
  C24      1.0000 0.24044  0.21593  0.08647  Biso   1.000  C 
  C25      1.0000 0.31746  0.30781  0.94057  Biso   1.000  C 
  C26      1.0000 0.21787  0.32699  0.72206  Biso   1.000  C 
  C27      1.0000 0.16132  0.69968  0.19902  Biso   1.000  C 
  C28      1.0000 0.66113  0.80058  0.70033  Biso   1.000  C 
  C29      1.0000 0.14290  0.76774  0.36930  Biso   1.000  C 
  C30      1.0000 0.18189  0.80743  0.55954  Biso   1.000  C 
  C31      1.0000 0.08218  0.81460  0.33656  Biso   1.000  C 
  C32      1.0000 0.24039  0.78389  0.58632  Biso   1.000  C 
  C33      1.0000 0.64289  0.26799  0.37060  Biso   1.000  C 
  C34      1.0000 0.68204  0.30757  0.56051  Biso   1.000  C 
  C35      1.0000 0.78170  0.32623  0.77841  Biso   1.000  C 
  C36      1.0000 0.58222  0.31495  0.33856  Biso   1.000  C 
  C37      1.0000 0.28139  0.82624  0.77853  Biso   1.000  C 
  C38      1.0000 0.66110  0.19993  0.19983  Biso   1.000  C 
  C39      1.0000 0.85653  0.76751  0.12909  Biso   1.000  C 
  C40      1.0000 0.81737  0.80736  0.93941  Biso   1.000  C 
  C41      1.0000 0.71768  0.82677  0.72198  Biso   1.000  C 
  C42      1.0000 0.91725  0.81407  0.16103  Biso   1.000  C 
  C43      1.0000 0.35648  0.26791  0.13054  Biso   1.000  C 
  C44      1.0000 0.75889  0.78423  0.91353  Biso   1.000  C 
  C45      1.0000 0.83832  0.69959  0.29976  Biso   1.000  C 
  C46      1.0000 0.33809  0.19970  0.30068  Biso   1.000  C 
  C47      1.0000 0.25895  0.28444  0.91394  Biso   1.000  C 
  C48      1.0000 0.74050  0.28400  0.58655  Biso   1.000  C 
  H1       1.0000 0.16727  0.86103  0.68839  Biso   1.000  H 
  H2       1.0000 0.26720  0.87949  0.90857  Biso   1.000  H 
  H3       1.0000 0.36959  0.17109  0.44877  Biso   1.000  H 
  H4       1.0000 0.36939  0.82828  0.94965  Biso   1.000  H 
  H5       1.0000 0.23206  0.62017  0.09141  Biso   1.000  H 
  H6       1.0000 0.73162  0.12034  0.09100  Biso   1.000  H 
  H7       1.0000 0.12984  0.67128  0.05074  Biso   1.000  H 
  H8       1.0000 0.33208  0.36145  0.81182  Biso   1.000  H 
  H9       1.0000 0.23204  0.38023  0.59208  Biso   1.000  H 
  H10      1.0000 0.33215  0.63859  0.31194  Biso   1.000  H 
  H11      1.0000 0.66757  0.63931  0.18975  Biso   1.000  H 
  H12      1.0000 0.76768  0.37937  0.90891  Biso   1.000  H 
  H13      1.0000 0.83186  0.86083  0.81025  Biso   1.000  H 
  H14      1.0000 0.86982  0.32805  0.94824  Biso   1.000  H 
  H15      1.0000 0.12978  0.32918  0.55152  Biso   1.000  H 
  H16      1.0000 0.62952  0.17159  0.05176  Biso   1.000  H 
  H17      1.0000 0.66754  0.36117  0.68966  Biso   1.000  H 
  H18      1.0000 0.73168  0.87982  0.59152  Biso   1.000  H 
  H19      1.0000 0.16730  0.13885  0.18846  Biso   1.000  H 
  H20      1.0000 0.99865  0.75100  0.74737  Biso   1.000  H 
  H21      1.0000 0.49954  0.25140  0.75092  Biso   1.000  H 
  H22      1.0000 0.86990  0.67097  0.44769  Biso   1.000  H 
  H23      1.0000 0.99887  0.24877  0.24827  Biso   1.000  H 
  H24      1.0000 0.26740  0.12004  0.40842  Biso   1.000  H 
  H25      1.0000 0.76778  0.62035  0.40858  Biso   1.000  H 
  H26      1.0000 0.62951  0.82919  0.55248  Biso   1.000  H 
  H27      1.0000 0.83181  0.13876  0.31026  Biso   1.000  H 
  H28      1.0000 0.49933  0.74918  0.25122  Biso   1.000  H 
  O1       1.0000 0.05022  0.81251  0.14831  Biso   1.000  O 
  O2       1.0000 0.49979  0.38529  0.75121  Biso   1.000  O 
  O3       1.0000 0.99961  0.88485  0.74864  Biso   1.000  O 
  O4       1.0000 0.43305  0.36088  0.00388  Biso   1.000  O 
  O5       1.0000 0.44923  0.31249  0.35146  Biso   1.000  O 
  O6       1.0000 0.94932  0.81198  0.34913  Biso   1.000  O 
  O7       1.0000 0.56648  0.36108  0.49822  Biso   1.000  O 
  O8       1.0000 0.55019  0.31291  0.15041  Biso   1.000  O 
  O9       1.0000 0.49973  0.61530  0.25141  Biso   1.000  O 
  O10      1.0000 0.44918  0.68790  0.85183  Biso   1.000  O 
  O11      1.0000 0.55016  0.68794  0.65087  Biso   1.000  O 
  O12      1.0000 0.06637  0.13921  0.99637  Biso   1.000  O 
  O13      1.0000 0.05022  0.18739  0.64880  Biso   1.000  O 
  O14      1.0000 0.43302  0.63935  0.50414  Biso   1.000  O 
  O15      1.0000 0.93292  0.13923  0.50169  Biso   1.000  O 
  O16      1.0000 0.99960  0.11490  0.24890  Biso   1.000  O 
  O17      1.0000 0.94924  0.18752  0.84948  Biso   1.000  O 
  O18      1.0000 0.06636  0.86078  0.49600  Biso   1.000  O 
  O19      1.0000 0.56646  0.64001  0.99857  Biso   1.000  O 
  O20      1.0000 0.93300  0.86003  0.00144  Biso   1.000  O 
