data_image0
_cell_length_a       23.6632
_cell_length_b       10.1823
_cell_length_c       6.66286
_cell_angle_alpha    89.9635
_cell_angle_beta     103.139
_cell_angle_gamma    90.0064

_symmetry_space_group_name_H-M    "P 1"
_symmetry_int_tables_number       1

loop_
  _symmetry_equiv_pos_as_xyz
  'x, y, z'

loop_
  _atom_site_label
  _atom_site_occupancy
  _atom_site_fract_x
  _atom_site_fract_y
  _atom_site_fract_z
  _atom_site_thermal_displace_type
  _atom_site_B_iso_or_equiv
  _atom_site_type_symbol
  Al1      1.0000 0.50089  0.50155  0.50020  Biso   1.000  Al
  Al2      1.0000 0.00089  0.00183  0.50027  Biso   1.000  Al
  Al3      1.0000 0.00090  0.99833  0.00029  Biso   1.000  Al
  Al4      1.0000 0.50087  0.49831  0.00024  Biso   1.000  Al
  C1       1.0000 0.68227  0.67519  0.04835  Biso   1.000  C 
  C2       1.0000 0.85639  0.19455  0.64432  Biso   1.000  C 
  C3       1.0000 0.81869  0.17712  0.45389  Biso   1.000  C 
  C4       1.0000 0.72044  0.20119  0.22568  Biso   1.000  C 
  C5       1.0000 0.76024  0.21897  0.41880  Biso   1.000  C 
  C6       1.0000 0.83668  0.25609  0.80726  Biso   1.000  C 
  C7       1.0000 0.35640  0.69440  0.64444  Biso   1.000  C 
  C8       1.0000 0.31867  0.67708  0.45404  Biso   1.000  C 
  C9       1.0000 0.22041  0.70128  0.22603  Biso   1.000  C 
  C10      1.0000 0.26023  0.71904  0.41908  Biso   1.000  C 
  C11      1.0000 0.78039  0.69969  0.27665  Biso   1.000  C 
  C12      1.0000 0.24061  0.21769  0.08360  Biso   1.000  C 
  C13      1.0000 0.33672  0.75590  0.80749  Biso   1.000  C 
  C14      1.0000 0.41670  0.35834  0.18024  Biso   1.000  C 
  C15      1.0000 0.14471  0.19200  0.85769  Biso   1.000  C 
  C16      1.0000 0.18226  0.17524  0.04848  Biso   1.000  C 
  C17      1.0000 0.41674  0.64171  0.68004  Biso   1.000  C 
  C18      1.0000 0.28035  0.20000  0.27682  Biso   1.000  C 
  C19      1.0000 0.08461  0.13799  0.82160  Biso   1.000  C 
  C20      1.0000 0.16426  0.25388  0.69457  Biso   1.000  C 
  C21      1.0000 0.74064  0.71754  0.08349  Biso   1.000  C 
  C22      1.0000 0.91672  0.14187  0.68000  Biso   1.000  C 
  C23      1.0000 0.58462  0.63794  0.82144  Biso   1.000  C 
  C24      1.0000 0.64473  0.69192  0.85752  Biso   1.000  C 
  C25      1.0000 0.31868  0.32302  0.95408  Biso   1.000  C 
  C26      1.0000 0.33662  0.24432  0.30776  Biso   1.000  C 
  C27      1.0000 0.16421  0.74622  0.19488  Biso   1.000  C 
  C28      1.0000 0.66432  0.75368  0.69438  Biso   1.000  C 
  C29      1.0000 0.14470  0.80813  0.35795  Biso   1.000  C 
  C30      1.0000 0.18230  0.82497  0.54861  Biso   1.000  C 
  C31      1.0000 0.24065  0.78249  0.58365  Biso   1.000  C 
  C32      1.0000 0.64466  0.30781  0.35757  Biso   1.000  C 
  C33      1.0000 0.68223  0.32461  0.54828  Biso   1.000  C 
  C34      1.0000 0.78039  0.30027  0.77635  Biso   1.000  C 
  C35      1.0000 0.58455  0.36175  0.32155  Biso   1.000  C 
  C36      1.0000 0.66422  0.24605  0.19449  Biso   1.000  C 
  C37      1.0000 0.08461  0.86216  0.32186  Biso   1.000  C 
  C38      1.0000 0.85640  0.80547  0.14461  Biso   1.000  C 
  C39      1.0000 0.81873  0.82285  0.95406  Biso   1.000  C 
  C40      1.0000 0.72053  0.79860  0.72564  Biso   1.000  C 
  C41      1.0000 0.91673  0.85821  0.18029  Biso   1.000  C 
  C42      1.0000 0.35635  0.30571  0.14464  Biso   1.000  C 
  C43      1.0000 0.28046  0.80024  0.77669  Biso   1.000  C 
  C44      1.0000 0.76029  0.78092  0.91890  Biso   1.000  C 
  C45      1.0000 0.83666  0.74393  0.30762  Biso   1.000  C 
  C46      1.0000 0.26024  0.28108  0.91899  Biso   1.000  C 
  C47      1.0000 0.74061  0.28234  0.58332  Biso   1.000  C 
  C48      1.0000 0.22046  0.29882  0.72578  Biso   1.000  C 
  H1       1.0000 0.86698  0.26768  0.95593  Biso   1.000  H 
  H2       1.0000 0.16665  0.87308  0.67183  Biso   1.000  H 
  H3       1.0000 0.36687  0.23301  0.45662  Biso   1.000  H 
  H4       1.0000 0.36703  0.76730  0.95620  Biso   1.000  H 
  H5       1.0000 0.23538  0.65207  0.10213  Biso   1.000  H 
  H6       1.0000 0.33424  0.62892  0.33067  Biso   1.000  H 
  H7       1.0000 0.13377  0.73552  0.04622  Biso   1.000  H 
  H8       1.0000 0.33431  0.37116  0.83073  Biso   1.000  H 
  H9       1.0000 0.23547  0.34804  0.60186  Biso   1.000  H 
  H10      1.0000 0.66657  0.62718  0.17164  Biso   1.000  H 
  H11      1.0000 0.73545  0.15210  0.10178  Biso   1.000  H 
  H12      1.0000 0.83437  0.87105  0.83077  Biso   1.000  H 
  H13      1.0000 0.26541  0.84919  0.90064  Biso   1.000  H 
  H14      1.0000 0.76531  0.34924  0.90022  Biso   1.000  H 
  H15      1.0000 0.63382  0.23541  0.04575  Biso   1.000  H 
  H16      1.0000 0.86693  0.73240  0.45640  Biso   1.000  H 
  H17      1.0000 0.13386  0.26456  0.54579  Biso   1.000  H 
  H18      1.0000 0.66655  0.37263  0.67151  Biso   1.000  H 
  H19      1.0000 0.16657  0.12720  0.17175  Biso   1.000  H 
  H20      1.0000 0.97952  0.83481  0.72901  Biso   1.000  H 
  H21      1.0000 0.48073  0.33353  0.73024  Biso   1.000  H 
  H22      1.0000 0.73556  0.84770  0.60166  Biso   1.000  H 
  H23      1.0000 0.97945  0.16528  0.22863  Biso   1.000  H 
  H24      1.0000 0.26524  0.15111  0.40079  Biso   1.000  H 
  H25      1.0000 0.76528  0.65073  0.40054  Biso   1.000  H 
  H26      1.0000 0.83430  0.12898  0.33062  Biso   1.000  H 
  H27      1.0000 0.48094  0.66651  0.23014  Biso   1.000  H 
  H28      1.0000 0.63394  0.76428  0.54553  Biso   1.000  H 
  O1       1.0000 0.55563  0.37006  0.13561  Biso   1.000  O 
  O2       1.0000 0.56663  0.60140  0.97865  Biso   1.000  O 
  O3       1.0000 0.05566  0.87031  0.13595  Biso   1.000  O 
  O4       1.0000 0.49958  0.41854  0.74830  Biso   1.000  O 
  O5       1.0000 0.99945  0.91857  0.74818  Biso   1.000  O 
  O6       1.0000 0.44507  0.37012  0.36680  Biso   1.000  O 
  O7       1.0000 0.94506  0.87017  0.36687  Biso   1.000  O 
  O8       1.0000 0.56659  0.39827  0.47875  Biso   1.000  O 
  O9       1.0000 0.43528  0.39052  0.02171  Biso   1.000  O 
  O10      1.0000 0.99943  0.08157  0.24801  Biso   1.000  O 
  O11      1.0000 0.06664  0.10126  0.97877  Biso   1.000  O 
  O12      1.0000 0.05567  0.12985  0.63567  Biso   1.000  O 
  O13      1.0000 0.43530  0.60950  0.52155  Biso   1.000  O 
  O14      1.0000 0.93529  0.10974  0.52147  Biso   1.000  O 
  O15      1.0000 0.94507  0.12995  0.86659  Biso   1.000  O 
  O16      1.0000 0.06665  0.89891  0.47897  Biso   1.000  O 
  O17      1.0000 0.55572  0.62963  0.63548  Biso   1.000  O 
  O18      1.0000 0.49963  0.58131  0.24821  Biso   1.000  O 
  O19      1.0000 0.44512  0.62989  0.86661  Biso   1.000  O 
  O20      1.0000 0.93531  0.89037  0.02173  Biso   1.000  O 
