data_image0
_cell_length_a       24.8707
_cell_length_b       6.70005
_cell_length_c       6.61528
_cell_angle_alpha    90.0744
_cell_angle_beta     107.65
_cell_angle_gamma    89.9892

_symmetry_space_group_name_H-M    "P 1"
_symmetry_int_tables_number       1

loop_
  _symmetry_equiv_pos_as_xyz
  'x, y, z'

loop_
  _atom_site_label
  _atom_site_occupancy
  _atom_site_fract_x
  _atom_site_fract_y
  _atom_site_fract_z
  _atom_site_thermal_displace_type
  _atom_site_B_iso_or_equiv
  _atom_site_type_symbol
  Al1      1.0000 0.49967  0.50005  0.50097  Biso   1.000  Al
  Al2      1.0000 0.99967  0.00008  0.49911  Biso   1.000  Al
  Al3      1.0000 0.99970  0.99996  0.99912  Biso   1.000  Al
  Al4      1.0000 0.49968  0.50010  0.00096  Biso   1.000  Al
  C1       1.0000 0.68306  0.70036  0.06702  Biso   1.000  C 
  C2       1.0000 0.85653  0.23830  0.62649  Biso   1.000  C 
  C3       1.0000 0.81640  0.20035  0.43332  Biso   1.000  C 
  C4       1.0000 0.71601  0.18009  0.21477  Biso   1.000  C 
  C5       1.0000 0.91718  0.19607  0.65545  Biso   1.000  C 
  C6       1.0000 0.75821  0.21929  0.41023  Biso   1.000  C 
  C7       1.0000 0.83964  0.29864  0.80407  Biso   1.000  C 
  C8       1.0000 0.35653  0.73823  0.62742  Biso   1.000  C 
  C9       1.0000 0.31649  0.70021  0.43404  Biso   1.000  C 
  C10      1.0000 0.21617  0.67982  0.21475  Biso   1.000  C 
  C11      1.0000 0.25827  0.71914  0.41041  Biso   1.000  C 
  C12      1.0000 0.74123  0.71939  0.08987  Biso   1.000  C 
  C13      1.0000 0.78345  0.67999  0.28507  Biso   1.000  C 
  C14      1.0000 0.33952  0.79875  0.80465  Biso   1.000  C 
  C15      1.0000 0.41720  0.30398  0.15637  Biso   1.000  C 
  C16      1.0000 0.14286  0.23826  0.87310  Biso   1.000  C 
  C17      1.0000 0.18296  0.20020  0.06623  Biso   1.000  C 
  C18      1.0000 0.28329  0.17975  0.28504  Biso   1.000  C 
  C19      1.0000 0.08218  0.19583  0.84378  Biso   1.000  C 
  C20      1.0000 0.64287  0.73833  0.87409  Biso   1.000  C 
  C21      1.0000 0.15983  0.29907  0.69600  Biso   1.000  C 
  C22      1.0000 0.41720  0.69602  0.65687  Biso   1.000  C 
  C23      1.0000 0.58220  0.69599  0.84523  Biso   1.000  C 
  C24      1.0000 0.24116  0.21927  0.08962  Biso   1.000  C 
  C25      1.0000 0.31646  0.29976  0.93373  Biso   1.000  C 
  C26      1.0000 0.21611  0.32029  0.71488  Biso   1.000  C 
  C27      1.0000 0.15988  0.70112  0.19566  Biso   1.000  C 
  C28      1.0000 0.65970  0.79896  0.69662  Biso   1.000  C 
  C29      1.0000 0.14287  0.76183  0.37283  Biso   1.000  C 
  C30      1.0000 0.18293  0.79970  0.56622  Biso   1.000  C 
  C31      1.0000 0.08219  0.80435  0.34345  Biso   1.000  C 
  C32      1.0000 0.24114  0.78059  0.58984  Biso   1.000  C 
  C33      1.0000 0.64286  0.26187  0.37371  Biso   1.000  C 
  C34      1.0000 0.68301  0.29974  0.56687  Biso   1.000  C 
  C35      1.0000 0.78339  0.31978  0.78546  Biso   1.000  C 
  C36      1.0000 0.58219  0.30418  0.34478  Biso   1.000  C 
  C37      1.0000 0.28323  0.81990  0.78552  Biso   1.000  C 
  C38      1.0000 0.65975  0.20134  0.19618  Biso   1.000  C 
  C39      1.0000 0.85653  0.76166  0.12598  Biso   1.000  C 
  C40      1.0000 0.81636  0.79974  0.93306  Biso   1.000  C 
  C41      1.0000 0.71595  0.82012  0.71497  Biso   1.000  C 
  C42      1.0000 0.91718  0.80387  0.15486  Biso   1.000  C 
  C43      1.0000 0.35653  0.26160  0.12688  Biso   1.000  C 
  C44      1.0000 0.75818  0.78081  0.91017  Biso   1.000  C 
  C45      1.0000 0.83970  0.70108  0.30347  Biso   1.000  C 
  C46      1.0000 0.33957  0.20085  0.30400  Biso   1.000  C 
  C47      1.0000 0.25825  0.28083  0.91027  Biso   1.000  C 
  C48      1.0000 0.74120  0.28064  0.58997  Biso   1.000  C 
  H1       1.0000 0.16928  0.84753  0.70039  Biso   1.000  H 
  H2       1.0000 0.27014  0.86700  0.92111  Biso   1.000  H 
  H3       1.0000 0.37194  0.17452  0.45456  Biso   1.000  H 
  H4       1.0000 0.37185  0.82499  0.95538  Biso   1.000  H 
  H5       1.0000 0.22925  0.63286  0.07908  Biso   1.000  H 
  H6       1.0000 0.72900  0.13329  0.07884  Biso   1.000  H 
  H7       1.0000 0.12755  0.67499  0.04490  Biso   1.000  H 
  H8       1.0000 0.33008  0.34774  0.79964  Biso   1.000  H 
  H9       1.0000 0.22915  0.36727  0.57924  Biso   1.000  H 
  H10      1.0000 0.33015  0.65236  0.29987  Biso   1.000  H 
  H11      1.0000 0.66955  0.65256  0.20142  Biso   1.000  H 
  H12      1.0000 0.77040  0.36671  0.92134  Biso   1.000  H 
  H13      1.0000 0.82990  0.84758  0.79876  Biso   1.000  H 
  H14      1.0000 0.87204  0.32471  0.95471  Biso   1.000  H 
  H15      1.0000 0.12746  0.32533  0.54542  Biso   1.000  H 
  H16      1.0000 0.62735  0.17539  0.04554  Biso   1.000  H 
  H17      1.0000 0.66945  0.34747  0.70129  Biso   1.000  H 
  H18      1.0000 0.72889  0.86699  0.57906  Biso   1.000  H 
  H19      1.0000 0.16935  0.15228  0.20035  Biso   1.000  H 
  H20      1.0000 0.99842  0.73009  0.74728  Biso   1.000  H 
  H21      1.0000 0.49944  0.23010  0.75025  Biso   1.000  H 
  H22      1.0000 0.87214  0.67486  0.45386  Biso   1.000  H 
  H23      1.0000 0.99885  0.26999  0.24854  Biso   1.000  H 
  H24      1.0000 0.27023  0.13258  0.42058  Biso   1.000  H 
  H25      1.0000 0.77051  0.63303  0.42091  Biso   1.000  H 
  H26      1.0000 0.62727  0.82509  0.54619  Biso   1.000  H 
  H27      1.0000 0.82997  0.15256  0.29894  Biso   1.000  H 
  H28      1.0000 0.49950  0.77001  0.25105  Biso   1.000  H 
  O1       1.0000 0.04849  0.79575  0.15431  Biso   1.000  O 
  O2       1.0000 0.49968  0.37455  0.75076  Biso   1.000  O 
  O3       1.0000 0.99963  0.87448  0.74891  Biso   1.000  O 
  O4       1.0000 0.43177  0.35411  0.99492  Biso   1.000  O 
  O5       1.0000 0.45086  0.29553  0.34559  Biso   1.000  O 
  O6       1.0000 0.95089  0.79528  0.34398  Biso   1.000  O 
  O7       1.0000 0.56767  0.35435  0.50647  Biso   1.000  O 
  O8       1.0000 0.54846  0.29555  0.15570  Biso   1.000  O 
  O9       1.0000 0.49968  0.62556  0.25109  Biso   1.000  O 
  O10      1.0000 0.45086  0.70453  0.84613  Biso   1.000  O 
  O11      1.0000 0.54845  0.70466  0.65621  Biso   1.000  O 
  O12      1.0000 0.06766  0.14551  0.00529  Biso   1.000  O 
  O13      1.0000 0.04845  0.20447  0.65473  Biso   1.000  O 
  O14      1.0000 0.43179  0.64598  0.49530  Biso   1.000  O 
  O15      1.0000 0.93169  0.14591  0.49374  Biso   1.000  O 
  O16      1.0000 0.99961  0.12556  0.24921  Biso   1.000  O 
  O17      1.0000 0.95089  0.20469  0.84459  Biso   1.000  O 
  O18      1.0000 0.06764  0.85465  0.50502  Biso   1.000  O 
  O19      1.0000 0.56771  0.64574  0.00682  Biso   1.000  O 
  O20      1.0000 0.93169  0.85393  0.99326  Biso   1.000  O 
