data_image0
_cell_length_a       19.5439
_cell_length_b       17.8594
_cell_length_c       6.8559
_cell_angle_alpha    90.0007
_cell_angle_beta     105.697
_cell_angle_gamma    89.9996

_symmetry_space_group_name_H-M    "P 1"
_symmetry_int_tables_number       1

loop_
  _symmetry_equiv_pos_as_xyz
  'x, y, z'

loop_
  _atom_site_label
  _atom_site_occupancy
  _atom_site_fract_x
  _atom_site_fract_y
  _atom_site_fract_z
  _atom_site_thermal_displace_type
  _atom_site_B_iso_or_equiv
  _atom_site_type_symbol
  Al1      1.0000 0.50081  0.49998  0.50074  Biso   1.000  Al
  Al2      1.0000 0.00081  0.99998  0.50074  Biso   1.000  Al
  Al3      1.0000 0.00080  0.00004  0.00073  Biso   1.000  Al
  Al4      1.0000 0.50081  0.50004  0.00075  Biso   1.000  Al
  C1       1.0000 0.69362  0.67014  0.05510  Biso   1.000  C 
  C2       1.0000 0.85001  0.15636  0.63978  Biso   1.000  C 
  C3       1.0000 0.80773  0.17352  0.44710  Biso   1.000  C 
  C4       1.0000 0.71068  0.24902  0.22020  Biso   1.000  C 
  C5       1.0000 0.35002  0.65637  0.63980  Biso   1.000  C 
  C6       1.0000 0.30773  0.67352  0.44711  Biso   1.000  C 
  C7       1.0000 0.21069  0.74903  0.22020  Biso   1.000  C 
  C8       1.0000 0.25516  0.73077  0.41566  Biso   1.000  C 
  C9       1.0000 0.79092  0.74535  0.28142  Biso   1.000  C 
  C10      1.0000 0.34048  0.69797  0.80779  Biso   1.000  C 
  C11      1.0000 0.40590  0.40446  0.17518  Biso   1.000  C 
  C12      1.0000 0.16126  0.19414  0.69372  Biso   1.000  C 
  C13      1.0000 0.15159  0.15293  0.86222  Biso   1.000  C 
  C14      1.0000 0.19360  0.17016  0.05507  Biso   1.000  C 
  C15      1.0000 0.40591  0.59556  0.67519  Biso   1.000  C 
  C16      1.0000 0.90590  0.09555  0.67517  Biso   1.000  C 
  C17      1.0000 0.75515  0.23076  0.41565  Biso   1.000  C 
  C18      1.0000 0.29090  0.24537  0.28141  Biso   1.000  C 
  C19      1.0000 0.09557  0.09241  0.82669  Biso   1.000  C 
  C20      1.0000 0.24623  0.22732  0.08616  Biso   1.000  C 
  C21      1.0000 0.65162  0.65291  0.86226  Biso   1.000  C 
  C22      1.0000 0.84047  0.19796  0.80777  Biso   1.000  C 
  C23      1.0000 0.59559  0.59240  0.82672  Biso   1.000  C 
  C24      1.0000 0.74625  0.72730  0.08618  Biso   1.000  C 
  C25      1.0000 0.30772  0.32650  0.94710  Biso   1.000  C 
  C26      1.0000 0.74624  0.27271  0.58616  Biso   1.000  C 
  C27      1.0000 0.16128  0.80589  0.19374  Biso   1.000  C 
  C28      1.0000 0.66128  0.69412  0.69375  Biso   1.000  C 
  C29      1.0000 0.15162  0.84711  0.36224  Biso   1.000  C 
  C30      1.0000 0.19362  0.82988  0.55508  Biso   1.000  C 
  C31      1.0000 0.69361  0.32987  0.55508  Biso   1.000  C 
  C32      1.0000 0.79091  0.25466  0.78141  Biso   1.000  C 
  C33      1.0000 0.59558  0.40761  0.32669  Biso   1.000  C 
  C34      1.0000 0.66127  0.30588  0.19373  Biso   1.000  C 
  C35      1.0000 0.85003  0.84364  0.13979  Biso   1.000  C 
  C36      1.0000 0.80774  0.82649  0.94710  Biso   1.000  C 
  C37      1.0000 0.65160  0.34710  0.36223  Biso   1.000  C 
  C38      1.0000 0.71069  0.75098  0.72022  Biso   1.000  C 
  C39      1.0000 0.90592  0.90444  0.17518  Biso   1.000  C 
  C40      1.0000 0.35001  0.34366  0.13979  Biso   1.000  C 
  C41      1.0000 0.29091  0.75467  0.78142  Biso   1.000  C 
  C42      1.0000 0.09559  0.90762  0.32670  Biso   1.000  C 
  C43      1.0000 0.24625  0.77272  0.58616  Biso   1.000  C 
  C44      1.0000 0.75516  0.76924  0.91567  Biso   1.000  C 
  C45      1.0000 0.84049  0.80204  0.30778  Biso   1.000  C 
  C46      1.0000 0.21068  0.25100  0.72020  Biso   1.000  C 
  C47      1.0000 0.34046  0.30206  0.30778  Biso   1.000  C 
  C48      1.0000 0.25514  0.26926  0.91565  Biso   1.000  C 
  H1       1.0000 0.81466  0.85790  0.81716  Biso   1.000  H 
  H2       1.0000 0.78539  0.28680  0.91171  Biso   1.000  H 
  H3       1.0000 0.37383  0.31555  0.45848  Biso   1.000  H 
  H4       1.0000 0.37385  0.68448  0.95849  Biso   1.000  H 
  H5       1.0000 0.21634  0.71704  0.08981  Biso   1.000  H 
  H6       1.0000 0.71633  0.21703  0.08980  Biso   1.000  H 
  H7       1.0000 0.12813  0.82006  0.04317  Biso   1.000  H 
  H8       1.0000 0.31465  0.35792  0.81716  Biso   1.000  H 
  H9       1.0000 0.21632  0.28298  0.58980  Biso   1.000  H 
  H10      1.0000 0.31466  0.64211  0.31717  Biso   1.000  H 
  H11      1.0000 0.68627  0.63901  0.18497  Biso   1.000  H 
  H12      1.0000 0.18627  0.86101  0.68495  Biso   1.000  H 
  H13      1.0000 0.87384  0.18447  0.95847  Biso   1.000  H 
  H14      1.0000 0.28539  0.78681  0.91171  Biso   1.000  H 
  H15      1.0000 0.71633  0.78297  0.58981  Biso   1.000  H 
  H16      1.0000 0.68626  0.36100  0.68495  Biso   1.000  H 
  H17      1.0000 0.87386  0.81553  0.45848  Biso   1.000  H 
  H18      1.0000 0.62811  0.32005  0.04317  Biso   1.000  H 
  H19      1.0000 0.18625  0.13902  0.18494  Biso   1.000  H 
  H20      1.0000 0.97598  0.90653  0.73169  Biso   1.000  H 
  H21      1.0000 0.47597  0.40654  0.73169  Biso   1.000  H 
  H22      1.0000 0.12810  0.17997  0.54316  Biso   1.000  H 
  H23      1.0000 0.97597  0.09348  0.23169  Biso   1.000  H 
  H24      1.0000 0.28537  0.21322  0.41170  Biso   1.000  H 
  H25      1.0000 0.78540  0.71321  0.41173  Biso   1.000  H 
  H26      1.0000 0.62812  0.67995  0.54319  Biso   1.000  H 
  H27      1.0000 0.81465  0.14210  0.31715  Biso   1.000  H 
  H28      1.0000 0.47598  0.59349  0.23170  Biso   1.000  H 
  O1       1.0000 0.93200  0.92499  0.35954  Biso   1.000  O 
  O2       1.0000 0.99862  0.04469  0.24903  Biso   1.000  O 
  O3       1.0000 0.57766  0.43369  0.47912  Biso   1.000  O 
  O4       1.0000 0.43199  0.57502  0.85955  Biso   1.000  O 
  O5       1.0000 0.56908  0.42763  0.14264  Biso   1.000  O 
  O6       1.0000 0.06910  0.92764  0.14264  Biso   1.000  O 
  O7       1.0000 0.99863  0.95532  0.74903  Biso   1.000  O 
  O8       1.0000 0.43198  0.42500  0.35954  Biso   1.000  O 
  O9       1.0000 0.57767  0.56632  0.97915  Biso   1.000  O 
  O10      1.0000 0.49862  0.54469  0.24903  Biso   1.000  O 
  O11      1.0000 0.42379  0.56984  0.52191  Biso   1.000  O 
  O12      1.0000 0.92378  0.06982  0.52190  Biso   1.000  O 
  O13      1.0000 0.93198  0.07501  0.85953  Biso   1.000  O 
  O14      1.0000 0.56909  0.57238  0.64265  Biso   1.000  O 
  O15      1.0000 0.07766  0.06633  0.97912  Biso   1.000  O 
  O16      1.0000 0.42379  0.43019  0.02190  Biso   1.000  O 
  O17      1.0000 0.06908  0.07238  0.64263  Biso   1.000  O 
  O18      1.0000 0.49862  0.45533  0.74903  Biso   1.000  O 
  O19      1.0000 0.07768  0.93370  0.47913  Biso   1.000  O 
  O20      1.0000 0.92381  0.93017  0.02191  Biso   1.000  O 
