data_image0
_cell_length_a       24.7871
_cell_length_b       6.96097
_cell_length_c       6.63167
_cell_angle_alpha    90.0861
_cell_angle_beta     107.018
_cell_angle_gamma    90.0072

_symmetry_space_group_name_H-M    "P 1"
_symmetry_int_tables_number       1

loop_
  _symmetry_equiv_pos_as_xyz
  'x, y, z'

loop_
  _atom_site_label
  _atom_site_occupancy
  _atom_site_fract_x
  _atom_site_fract_y
  _atom_site_fract_z
  _atom_site_thermal_displace_type
  _atom_site_B_iso_or_equiv
  _atom_site_type_symbol
  Al1      1.0000 0.49973  0.49993  0.50125  Biso   1.000  Al
  Al2      1.0000 0.99964  0.00027  0.49862  Biso   1.000  Al
  Al3      1.0000 0.99965  0.99958  0.99861  Biso   1.000  Al
  Al4      1.0000 0.49973  0.50006  0.00131  Biso   1.000  Al
  C1       1.0000 0.68254  0.69654  0.06421  Biso   1.000  C 
  C2       1.0000 0.85651  0.23543  0.62780  Biso   1.000  C 
  C3       1.0000 0.81686  0.19653  0.43624  Biso   1.000  C 
  C4       1.0000 0.71684  0.17642  0.21822  Biso   1.000  C 
  C5       1.0000 0.91718  0.19073  0.65814  Biso   1.000  C 
  C6       1.0000 0.75853  0.21761  0.41186  Biso   1.000  C 
  C7       1.0000 0.83897  0.29993  0.80212  Biso   1.000  C 
  C8       1.0000 0.35651  0.73535  0.62933  Biso   1.000  C 
  C9       1.0000 0.31703  0.69627  0.43742  Biso   1.000  C 
  C10      1.0000 0.21710  0.67621  0.21801  Biso   1.000  C 
  C11      1.0000 0.25865  0.71746  0.41202  Biso   1.000  C 
  C12      1.0000 0.74086  0.71752  0.08842  Biso   1.000  C 
  C13      1.0000 0.78260  0.67616  0.28172  Biso   1.000  C 
  C14      1.0000 0.33876  0.80010  0.80307  Biso   1.000  C 
  C15      1.0000 0.41723  0.30905  0.15996  Biso   1.000  C 
  C16      1.0000 0.14289  0.23546  0.87140  Biso   1.000  C 
  C17      1.0000 0.18241  0.19622  0.06302  Biso   1.000  C 
  C18      1.0000 0.28237  0.17581  0.28185  Biso   1.000  C 
  C19      1.0000 0.08217  0.19056  0.84011  Biso   1.000  C 
  C20      1.0000 0.64287  0.73565  0.87291  Biso   1.000  C 
  C21      1.0000 0.16061  0.30040  0.69784  Biso   1.000  C 
  C22      1.0000 0.41722  0.69056  0.66042  Biso   1.000  C 
  C23      1.0000 0.58219  0.69087  0.84247  Biso   1.000  C 
  C24      1.0000 0.24079  0.21733  0.08819  Biso   1.000  C 
  C25      1.0000 0.31700  0.30364  0.93736  Biso   1.000  C 
  C26      1.0000 0.21705  0.32416  0.71860  Biso   1.000  C 
  C27      1.0000 0.16066  0.70013  0.19710  Biso   1.000  C 
  C28      1.0000 0.66038  0.80030  0.69876  Biso   1.000  C 
  C29      1.0000 0.14291  0.76489  0.37084  Biso   1.000  C 
  C30      1.0000 0.18241  0.80389  0.56274  Biso   1.000  C 
  C31      1.0000 0.08219  0.80965  0.33955  Biso   1.000  C 
  C32      1.0000 0.24078  0.78266  0.58807  Biso   1.000  C 
  C33      1.0000 0.64290  0.26477  0.37245  Biso   1.000  C 
  C34      1.0000 0.68253  0.30370  0.56403  Biso   1.000  C 
  C35      1.0000 0.78257  0.32369  0.78210  Biso   1.000  C 
  C36      1.0000 0.58222  0.30952  0.34200  Biso   1.000  C 
  C37      1.0000 0.28232  0.82390  0.78209  Biso   1.000  C 
  C38      1.0000 0.66045  0.20020  0.19818  Biso   1.000  C 
  C39      1.0000 0.85649  0.76433  0.12734  Biso   1.000  C 
  C40      1.0000 0.81682  0.80345  0.93607  Biso   1.000  C 
  C41      1.0000 0.71678  0.82391  0.71859  Biso   1.000  C 
  C42      1.0000 0.91717  0.80895  0.15762  Biso   1.000  C 
  C43      1.0000 0.35652  0.26432  0.12892  Biso   1.000  C 
  C44      1.0000 0.75850  0.78251  0.91191  Biso   1.000  C 
  C45      1.0000 0.83899  0.69976  0.30153  Biso   1.000  C 
  C46      1.0000 0.33881  0.19946  0.30254  Biso   1.000  C 
  C47      1.0000 0.25863  0.28260  0.91225  Biso   1.000  C 
  C48      1.0000 0.74086  0.28258  0.58846  Biso   1.000  C 
  H1       1.0000 0.16825  0.85480  0.69427  Biso   1.000  H 
  H2       1.0000 0.26865  0.87422  0.91493  Biso   1.000  H 
  H3       1.0000 0.37073  0.17180  0.45186  Biso   1.000  H 
  H4       1.0000 0.37064  0.82757  0.95268  Biso   1.000  H 
  H5       1.0000 0.23072  0.62589  0.08502  Biso   1.000  H 
  H6       1.0000 0.73033  0.12626  0.08486  Biso   1.000  H 
  H7       1.0000 0.12877  0.67271  0.04752  Biso   1.000  H 
  H8       1.0000 0.33114  0.35473  0.80597  Biso   1.000  H 
  H9       1.0000 0.23067  0.37455  0.58579  Biso   1.000  H 
  H10      1.0000 0.33123  0.64524  0.30599  Biso   1.000  H 
  H11      1.0000 0.66854  0.64565  0.19601  Biso   1.000  H 
  H12      1.0000 0.76910  0.37385  0.91547  Biso   1.000  H 
  H13      1.0000 0.83082  0.85437  0.80427  Biso   1.000  H 
  H14      1.0000 0.87098  0.32726  0.95144  Biso   1.000  H 
  H15      1.0000 0.12870  0.32797  0.54845  Biso   1.000  H 
  H16      1.0000 0.62843  0.17294  0.04886  Biso   1.000  H 
  H17      1.0000 0.66850  0.35452  0.69593  Biso   1.000  H 
  H18      1.0000 0.73025  0.87408  0.58533  Biso   1.000  H 
  H19      1.0000 0.16825  0.14518  0.19437  Biso   1.000  H 
  H20      1.0000 0.99867  0.74084  0.74656  Biso   1.000  H 
  H21      1.0000 0.49935  0.24086  0.75055  Biso   1.000  H 
  H22      1.0000 0.87104  0.67223  0.45058  Biso   1.000  H 
  H23      1.0000 0.99868  0.25901  0.24744  Biso   1.000  H 
  H24      1.0000 0.26876  0.12540  0.41467  Biso   1.000  H 
  H25      1.0000 0.76914  0.62601  0.41500  Biso   1.000  H 
  H26      1.0000 0.62833  0.82769  0.54966  Biso   1.000  H 
  H27      1.0000 0.83087  0.14566  0.30432  Biso   1.000  H 
  H28      1.0000 0.49931  0.75911  0.25131  Biso   1.000  H 
  O1       1.0000 0.04938  0.80422  0.15071  Biso   1.000  O 
  O2       1.0000 0.49975  0.37988  0.75112  Biso   1.000  O 
  O3       1.0000 0.99956  0.87984  0.74819  Biso   1.000  O 
  O4       1.0000 0.43242  0.35713  0.99952  Biso   1.000  O 
  O5       1.0000 0.45007  0.30395  0.34873  Biso   1.000  O 
  O6       1.0000 0.95009  0.80394  0.34627  Biso   1.000  O 
  O7       1.0000 0.56709  0.35759  0.50266  Biso   1.000  O 
  O8       1.0000 0.54934  0.30434  0.15331  Biso   1.000  O 
  O9       1.0000 0.49973  0.62010  0.25144  Biso   1.000  O 
  O10      1.0000 0.45002  0.69571  0.84926  Biso   1.000  O 
  O11      1.0000 0.54928  0.69598  0.65384  Biso   1.000  O 
  O12      1.0000 0.06697  0.14212  0.00035  Biso   1.000  O 
  O13      1.0000 0.04935  0.19593  0.65132  Biso   1.000  O 
  O14      1.0000 0.43241  0.64242  0.49990  Biso   1.000  O 
  O15      1.0000 0.93229  0.14291  0.49731  Biso   1.000  O 
  O16      1.0000 0.99958  0.12003  0.24860  Biso   1.000  O 
  O17      1.0000 0.95007  0.19570  0.84684  Biso   1.000  O 
  O18      1.0000 0.06697  0.85800  0.49992  Biso   1.000  O 
  O19      1.0000 0.56707  0.64279  0.00304  Biso   1.000  O 
  O20      1.0000 0.93228  0.85681  0.99692  Biso   1.000  O 
