data_image0
_cell_length_a       20.4725
_cell_length_b       15.993
_cell_length_c       6.66593
_cell_angle_alpha    89.9999
_cell_angle_beta     102.864
_cell_angle_gamma    89.9998

_symmetry_space_group_name_H-M    "P 1"
_symmetry_int_tables_number       1

loop_
  _symmetry_equiv_pos_as_xyz
  'x, y, z'

loop_
  _atom_site_label
  _atom_site_occupancy
  _atom_site_fract_x
  _atom_site_fract_y
  _atom_site_fract_z
  _atom_site_thermal_displace_type
  _atom_site_B_iso_or_equiv
  _atom_site_type_symbol
  Al1      1.0000 0.50100  0.50094  0.49974  Biso   1.000  Al
  Al2      1.0000 0.00100  0.00093  0.49975  Biso   1.000  Al
  Al3      1.0000 0.00100  0.99908  0.99974  Biso   1.000  Al
  Al4      1.0000 0.50100  0.49908  0.99974  Biso   1.000  Al
  C1       1.0000 0.16162  0.79320  0.18823  Biso   1.000  C 
  C2       1.0000 0.66162  0.70681  0.68824  Biso   1.000  C 
  C3       1.0000 0.14913  0.84135  0.35496  Biso   1.000  C 
  C4       1.0000 0.18984  0.83251  0.54983  Biso   1.000  C 
  C5       1.0000 0.64912  0.34134  0.35496  Biso   1.000  C 
  C6       1.0000 0.68983  0.33249  0.54982  Biso   1.000  C 
  C7       1.0000 0.78794  0.26669  0.78305  Biso   1.000  C 
  C8       1.0000 0.59185  0.40143  0.31957  Biso   1.000  C 
  C9       1.0000 0.66160  0.29318  0.18821  Biso   1.000  C 
  C10      1.0000 0.85261  0.83797  0.14794  Biso   1.000  C 
  C11      1.0000 0.81157  0.82918  0.95344  Biso   1.000  C 
  C12      1.0000 0.25673  0.27306  0.91748  Biso   1.000  C 
  C13      1.0000 0.71363  0.76330  0.71979  Biso   1.000  C 
  C14      1.0000 0.90988  0.89815  0.18195  Biso   1.000  C 
  C15      1.0000 0.35257  0.33803  0.14794  Biso   1.000  C 
  C16      1.0000 0.28795  0.76671  0.78308  Biso   1.000  C 
  C17      1.0000 0.09186  0.90144  0.31958  Biso   1.000  C 
  C18      1.0000 0.75677  0.77301  0.91747  Biso   1.000  C 
  C19      1.0000 0.84010  0.78959  0.31429  Biso   1.000  C 
  C20      1.0000 0.21360  0.26333  0.71978  Biso   1.000  C 
  C21      1.0000 0.34006  0.28965  0.31429  Biso   1.000  C 
  C22      1.0000 0.24463  0.77633  0.58566  Biso   1.000  C 
  C23      1.0000 0.31153  0.32923  0.95344  Biso   1.000  C 
  C24      1.0000 0.74462  0.27631  0.58564  Biso   1.000  C 
  C25      1.0000 0.59186  0.59857  0.81959  Biso   1.000  C 
  C26      1.0000 0.16160  0.20684  0.68822  Biso   1.000  C 
  C27      1.0000 0.68984  0.66751  0.04984  Biso   1.000  C 
  C28      1.0000 0.85258  0.16201  0.64792  Biso   1.000  C 
  C29      1.0000 0.81154  0.17080  0.45343  Biso   1.000  C 
  C30      1.0000 0.71361  0.23670  0.21976  Biso   1.000  C 
  C31      1.0000 0.35260  0.66204  0.64794  Biso   1.000  C 
  C32      1.0000 0.31156  0.67083  0.45345  Biso   1.000  C 
  C33      1.0000 0.21363  0.73671  0.21979  Biso   1.000  C 
  C34      1.0000 0.25676  0.72700  0.41746  Biso   1.000  C 
  C35      1.0000 0.78796  0.73330  0.28308  Biso   1.000  C 
  C36      1.0000 0.34009  0.71042  0.81430  Biso   1.000  C 
  C37      1.0000 0.84008  0.21038  0.81427  Biso   1.000  C 
  C38      1.0000 0.40985  0.39818  0.18195  Biso   1.000  C 
  C39      1.0000 0.14912  0.15868  0.85497  Biso   1.000  C 
  C40      1.0000 0.18982  0.16753  0.04984  Biso   1.000  C 
  C41      1.0000 0.40988  0.60187  0.68196  Biso   1.000  C 
  C42      1.0000 0.90986  0.10184  0.68195  Biso   1.000  C 
  C43      1.0000 0.75675  0.22698  0.41745  Biso   1.000  C 
  C44      1.0000 0.28792  0.23335  0.28307  Biso   1.000  C 
  C45      1.0000 0.09185  0.09858  0.81959  Biso   1.000  C 
  C46      1.0000 0.74464  0.72368  0.08567  Biso   1.000  C 
  C47      1.0000 0.24461  0.22372  0.08567  Biso   1.000  C 
  C48      1.0000 0.64913  0.65866  0.85498  Biso   1.000  C 
  H1       1.0000 0.62888  0.30178  0.03663  Biso   1.000  H 
  H2       1.0000 0.12888  0.19823  0.53665  Biso   1.000  H 
  H3       1.0000 0.17931  0.13042  0.17630  Biso   1.000  H 
  H4       1.0000 0.97461  0.89601  0.72802  Biso   1.000  H 
  H5       1.0000 0.47459  0.39603  0.72799  Biso   1.000  H 
  H6       1.0000 0.47462  0.60401  0.22800  Biso   1.000  H 
  H7       1.0000 0.97459  0.10399  0.22801  Biso   1.000  H 
  H8       1.0000 0.27894  0.19530  0.41008  Biso   1.000  H 
  H9       1.0000 0.77897  0.69525  0.41007  Biso   1.000  H 
  H10      1.0000 0.62890  0.69822  0.53666  Biso   1.000  H 
  H11      1.0000 0.82160  0.13343  0.32676  Biso   1.000  H 
  H12      1.0000 0.72274  0.80128  0.59283  Biso   1.000  H 
  H13      1.0000 0.67932  0.36961  0.67627  Biso   1.000  H 
  H14      1.0000 0.87295  0.79741  0.46588  Biso   1.000  H 
  H15      1.0000 0.27896  0.80477  0.91007  Biso   1.000  H 
  H16      1.0000 0.17932  0.86962  0.67629  Biso   1.000  H 
  H17      1.0000 0.82163  0.86655  0.82678  Biso   1.000  H 
  H18      1.0000 0.77895  0.30474  0.91005  Biso   1.000  H 
  H19      1.0000 0.37291  0.29747  0.46588  Biso   1.000  H 
  H20      1.0000 0.37294  0.70259  0.96588  Biso   1.000  H 
  H21      1.0000 0.22273  0.69872  0.09283  Biso   1.000  H 
  H22      1.0000 0.87292  0.20256  0.96586  Biso   1.000  H 
  H23      1.0000 0.12889  0.80179  0.03665  Biso   1.000  H 
  H24      1.0000 0.32159  0.36660  0.82678  Biso   1.000  H 
  H25      1.0000 0.22270  0.30133  0.59282  Biso   1.000  H 
  H26      1.0000 0.72271  0.19871  0.09280  Biso   1.000  H 
  H27      1.0000 0.32163  0.63345  0.32678  Biso   1.000  H 
  H28      1.0000 0.67933  0.63039  0.17630  Biso   1.000  H 
  O1       1.0000 0.06180  0.08499  0.63347  Biso   1.000  O 
  O2       1.0000 0.42581  0.42857  0.02234  Biso   1.000  O 
  O3       1.0000 0.07657  0.06572  0.97702  Biso   1.000  O 
  O4       1.0000 0.49913  0.55172  0.24758  Biso   1.000  O 
  O5       1.0000 0.56181  0.58499  0.63349  Biso   1.000  O 
  O6       1.0000 0.93892  0.08570  0.86814  Biso   1.000  O 
  O7       1.0000 0.92582  0.07144  0.52234  Biso   1.000  O 
  O8       1.0000 0.42583  0.57147  0.52234  Biso   1.000  O 
  O9       1.0000 0.07658  0.93430  0.47702  Biso   1.000  O 
  O10      1.0000 0.57658  0.56571  0.97702  Biso   1.000  O 
  O11      1.0000 0.93895  0.91429  0.36814  Biso   1.000  O 
  O12      1.0000 0.43892  0.41432  0.36814  Biso   1.000  O 
  O13      1.0000 0.99913  0.94830  0.74759  Biso   1.000  O 
  O14      1.0000 0.06181  0.91503  0.13349  Biso   1.000  O 
  O15      1.0000 0.56179  0.41502  0.13348  Biso   1.000  O 
  O16      1.0000 0.43894  0.58573  0.86815  Biso   1.000  O 
  O17      1.0000 0.57657  0.43429  0.47701  Biso   1.000  O 
  O18      1.0000 0.99912  0.05171  0.24758  Biso   1.000  O 
  O19      1.0000 0.49912  0.44830  0.74758  Biso   1.000  O 
  O20      1.0000 0.92583  0.92855  0.02234  Biso   1.000  O 
