data_image0
_cell_length_a       24.1462
_cell_length_b       8.66497
_cell_length_c       6.68783
_cell_angle_alpha    90.0384
_cell_angle_beta     103.708
_cell_angle_gamma    89.985

_symmetry_space_group_name_H-M    "P 1"
_symmetry_int_tables_number       1

loop_
  _symmetry_equiv_pos_as_xyz
  'x, y, z'

loop_
  _atom_site_label
  _atom_site_occupancy
  _atom_site_fract_x
  _atom_site_fract_y
  _atom_site_fract_z
  _atom_site_thermal_displace_type
  _atom_site_B_iso_or_equiv
  _atom_site_type_symbol
  Al1      1.0000 0.49976  0.50060  0.50020  Biso   1.000  Al
  Al2      1.0000 0.99985  0.00042  0.49988  Biso   1.000  Al
  Al3      1.0000 0.99985  0.99958  0.99991  Biso   1.000  Al
  Al4      1.0000 0.49978  0.50015  0.00020  Biso   1.000  Al
  C1       1.0000 0.16413  0.72080  0.19805  Biso   1.000  C 
  C2       1.0000 0.66400  0.77992  0.69842  Biso   1.000  C 
  C3       1.0000 0.14353  0.78931  0.35961  Biso   1.000  C 
  C4       1.0000 0.18060  0.81935  0.54810  Biso   1.000  C 
  C5       1.0000 0.08287  0.84030  0.32322  Biso   1.000  C 
  C6       1.0000 0.23938  0.78491  0.58211  Biso   1.000  C 
  C7       1.0000 0.64347  0.28906  0.35974  Biso   1.000  C 
  C8       1.0000 0.68061  0.31920  0.54807  Biso   1.000  C 
  C9       1.0000 0.77865  0.31714  0.77219  Biso   1.000  C 
  C10      1.0000 0.58282  0.34027  0.32346  Biso   1.000  C 
  C11      1.0000 0.66401  0.22023  0.19824  Biso   1.000  C 
  C12      1.0000 0.22083  0.31718  0.72804  Biso   1.000  C 
  C13      1.0000 0.85602  0.78910  0.14022  Biso   1.000  C 
  C14      1.0000 0.81884  0.81974  0.95218  Biso   1.000  C 
  C15      1.0000 0.72074  0.81797  0.72833  Biso   1.000  C 
  C16      1.0000 0.91673  0.83970  0.17649  Biso   1.000  C 
  C17      1.0000 0.35602  0.28940  0.14052  Biso   1.000  C 
  C18      1.0000 0.76004  0.78539  0.91849  Biso   1.000  C 
  C19      1.0000 0.83551  0.72018  0.30155  Biso   1.000  C 
  C20      1.0000 0.26009  0.28506  0.91847  Biso   1.000  C 
  C21      1.0000 0.73938  0.28465  0.58188  Biso   1.000  C 
  C22      1.0000 0.27859  0.81717  0.77263  Biso   1.000  C 
  C23      1.0000 0.31888  0.31954  0.95225  Biso   1.000  C 
  C24      1.0000 0.33548  0.22078  0.30200  Biso   1.000  C 
  C25      1.0000 0.58283  0.66022  0.82371  Biso   1.000  C 
  C26      1.0000 0.23949  0.21497  0.08173  Biso   1.000  C 
  C27      1.0000 0.68069  0.68056  0.04794  Biso   1.000  C 
  C28      1.0000 0.85596  0.21054  0.64056  Biso   1.000  C 
  C29      1.0000 0.81880  0.18003  0.45237  Biso   1.000  C 
  C30      1.0000 0.72073  0.18201  0.22828  Biso   1.000  C 
  C31      1.0000 0.76000  0.21438  0.41864  Biso   1.000  C 
  C32      1.0000 0.83539  0.27924  0.80206  Biso   1.000  C 
  C33      1.0000 0.35597  0.71086  0.64112  Biso   1.000  C 
  C34      1.0000 0.31887  0.68058  0.45277  Biso   1.000  C 
  C35      1.0000 0.22087  0.68271  0.22825  Biso   1.000  C 
  C36      1.0000 0.26006  0.71489  0.41883  Biso   1.000  C 
  C37      1.0000 0.91669  0.16016  0.67678  Biso   1.000  C 
  C38      1.0000 0.77877  0.68226  0.27169  Biso   1.000  C 
  C39      1.0000 0.33534  0.77928  0.80269  Biso   1.000  C 
  C40      1.0000 0.41670  0.34018  0.17683  Biso   1.000  C 
  C41      1.0000 0.14357  0.21053  0.85965  Biso   1.000  C 
  C42      1.0000 0.18071  0.18047  0.04796  Biso   1.000  C 
  C43      1.0000 0.41668  0.66041  0.67731  Biso   1.000  C 
  C44      1.0000 0.27876  0.18273  0.27208  Biso   1.000  C 
  C45      1.0000 0.08290  0.15961  0.82341  Biso   1.000  C 
  C46      1.0000 0.64350  0.71106  0.85986  Biso   1.000  C 
  C47      1.0000 0.16410  0.27904  0.69805  Biso   1.000  C 
  C48      1.0000 0.73946  0.71496  0.08158  Biso   1.000  C 
  H1       1.0000 0.66430  0.37289  0.67015  Biso   1.000  H 
  H2       1.0000 0.73649  0.87280  0.60568  Biso   1.000  H 
  H3       1.0000 0.16440  0.12701  0.17006  Biso   1.000  H 
  H4       1.0000 0.99687  0.79421  0.74644  Biso   1.000  H 
  H5       1.0000 0.49880  0.29437  0.74885  Biso   1.000  H 
  H6       1.0000 0.63399  0.80131  0.55153  Biso   1.000  H 
  H7       1.0000 0.99634  0.20572  0.24625  Biso   1.000  H 
  H8       1.0000 0.26299  0.12803  0.39479  Biso   1.000  H 
  H9       1.0000 0.76301  0.62736  0.39430  Biso   1.000  H 
  H10      1.0000 0.83511  0.12634  0.33029  Biso   1.000  H 
  H11      1.0000 0.49827  0.70630  0.24871  Biso   1.000  H 
  H12      1.0000 0.63404  0.19904  0.05116  Biso   1.000  H 
  H13      1.0000 0.86551  0.69860  0.44840  Biso   1.000  H 
  H14      1.0000 0.13411  0.30002  0.55099  Biso   1.000  H 
  H15      1.0000 0.76286  0.37190  0.89491  Biso   1.000  H 
  H16      1.0000 0.83511  0.87361  0.83025  Biso   1.000  H 
  H17      1.0000 0.86538  0.30074  0.94900  Biso   1.000  H 
  H18      1.0000 0.16422  0.87283  0.67013  Biso   1.000  H 
  H19      1.0000 0.36547  0.19952  0.44897  Biso   1.000  H 
  H20      1.0000 0.36528  0.80054  0.94982  Biso   1.000  H 
  H21      1.0000 0.23673  0.62818  0.10553  Biso   1.000  H 
  H22      1.0000 0.26276  0.87173  0.89539  Biso   1.000  H 
  H23      1.0000 0.13420  0.69977  0.05085  Biso   1.000  H 
  H24      1.0000 0.33518  0.37311  0.83017  Biso   1.000  H 
  H25      1.0000 0.23661  0.37170  0.60525  Biso   1.000  H 
  H26      1.0000 0.33524  0.62710  0.33070  Biso   1.000  H 
  H27      1.0000 0.66440  0.62684  0.16994  Biso   1.000  H 
  H28      1.0000 0.73651  0.12722  0.10554  Biso   1.000  H 
  O1       1.0000 0.55402  0.65240  0.63743  Biso   1.000  O 
  O2       1.0000 0.06439  0.87682  0.48012  Biso   1.000  O 
  O3       1.0000 0.94545  0.15196  0.86311  Biso   1.000  O 
  O4       1.0000 0.99972  0.09443  0.24966  Biso   1.000  O 
  O5       1.0000 0.93525  0.12469  0.51957  Biso   1.000  O 
  O6       1.0000 0.43522  0.62470  0.52016  Biso   1.000  O 
  O7       1.0000 0.05406  0.15199  0.63717  Biso   1.000  O 
  O8       1.0000 0.06445  0.12310  0.98033  Biso   1.000  O 
  O9       1.0000 0.44546  0.65233  0.86362  Biso   1.000  O 
  O10      1.0000 0.43524  0.37598  0.01977  Biso   1.000  O 
  O11      1.0000 0.55406  0.34830  0.13715  Biso   1.000  O 
  O12      1.0000 0.56435  0.37666  0.48046  Biso   1.000  O 
  O13      1.0000 0.94546  0.84802  0.36284  Biso   1.000  O 
  O14      1.0000 0.44545  0.34840  0.36320  Biso   1.000  O 
  O15      1.0000 0.99971  0.90561  0.74953  Biso   1.000  O 
  O16      1.0000 0.49975  0.40599  0.75001  Biso   1.000  O 
  O17      1.0000 0.05407  0.84800  0.13695  Biso   1.000  O 
  O18      1.0000 0.56437  0.62396  0.98072  Biso   1.000  O 
  O19      1.0000 0.49973  0.59471  0.25018  Biso   1.000  O 
  O20      1.0000 0.93526  0.87530  0.01934  Biso   1.000  O 
