data_image0
_cell_length_a       22.8026
_cell_length_b       12.2403
_cell_length_c       6.64967
_cell_angle_alpha    89.9944
_cell_angle_beta     102.919
_cell_angle_gamma    90.001

_symmetry_space_group_name_H-M    "P 1"
_symmetry_int_tables_number       1

loop_
  _symmetry_equiv_pos_as_xyz
  'x, y, z'

loop_
  _atom_site_label
  _atom_site_occupancy
  _atom_site_fract_x
  _atom_site_fract_y
  _atom_site_fract_z
  _atom_site_thermal_displace_type
  _atom_site_B_iso_or_equiv
  _atom_site_type_symbol
  Al1      1.0000 0.50095  0.50157  0.49986  Biso   1.000  Al
  Al2      1.0000 0.00096  0.00157  0.49983  Biso   1.000  Al
  Al3      1.0000 0.00096  0.99850  0.99984  Biso   1.000  Al
  Al4      1.0000 0.50096  0.49849  0.99986  Biso   1.000  Al
  C1       1.0000 0.16289  0.76784  0.19157  Biso   1.000  C 
  C2       1.0000 0.66295  0.73207  0.69147  Biso   1.000  C 
  C3       1.0000 0.14544  0.82357  0.35633  Biso   1.000  C 
  C4       1.0000 0.18414  0.82859  0.54909  Biso   1.000  C 
  C5       1.0000 0.24177  0.77978  0.58472  Biso   1.000  C 
  C6       1.0000 0.64543  0.32355  0.35632  Biso   1.000  C 
  C7       1.0000 0.68414  0.32858  0.54908  Biso   1.000  C 
  C8       1.0000 0.78289  0.28515  0.77978  Biso   1.000  C 
  C9       1.0000 0.58616  0.38048  0.32051  Biso   1.000  C 
  C10      1.0000 0.66288  0.26780  0.19158  Biso   1.000  C 
  C11      1.0000 0.85591  0.82036  0.14634  Biso   1.000  C 
  C12      1.0000 0.33826  0.26483  0.31098  Biso   1.000  C 
  C13      1.0000 0.81697  0.82575  0.95393  Biso   1.000  C 
  C14      1.0000 0.71822  0.78243  0.72305  Biso   1.000  C 
  C15      1.0000 0.91538  0.87671  0.18113  Biso   1.000  C 
  C16      1.0000 0.35587  0.32045  0.14637  Biso   1.000  C 
  C17      1.0000 0.28290  0.78514  0.77981  Biso   1.000  C 
  C18      1.0000 0.75926  0.77720  0.91836  Biso   1.000  C 
  C19      1.0000 0.83831  0.76469  0.31093  Biso   1.000  C 
  C20      1.0000 0.74176  0.27978  0.58470  Biso   1.000  C 
  C21      1.0000 0.21817  0.28260  0.72312  Biso   1.000  C 
  C22      1.0000 0.08617  0.88051  0.32051  Biso   1.000  C 
  C23      1.0000 0.31693  0.32586  0.95397  Biso   1.000  C 
  C24      1.0000 0.25921  0.27736  0.91842  Biso   1.000  C 
  C25      1.0000 0.58619  0.61949  0.82046  Biso   1.000  C 
  C26      1.0000 0.64549  0.67636  0.85624  Biso   1.000  C 
  C27      1.0000 0.68418  0.67132  0.04902  Biso   1.000  C 
  C28      1.0000 0.85588  0.17963  0.64634  Biso   1.000  C 
  C29      1.0000 0.81692  0.17419  0.45397  Biso   1.000  C 
  C30      1.0000 0.71815  0.21743  0.22317  Biso   1.000  C 
  C31      1.0000 0.83828  0.23528  0.81093  Biso   1.000  C 
  C32      1.0000 0.35589  0.67963  0.64636  Biso   1.000  C 
  C33      1.0000 0.31693  0.67421  0.45397  Biso   1.000  C 
  C34      1.0000 0.21817  0.71747  0.22315  Biso   1.000  C 
  C35      1.0000 0.25922  0.72272  0.41843  Biso   1.000  C 
  C36      1.0000 0.78293  0.71478  0.27975  Biso   1.000  C 
  C37      1.0000 0.75921  0.22270  0.41844  Biso   1.000  C 
  C38      1.0000 0.33829  0.73527  0.81095  Biso   1.000  C 
  C39      1.0000 0.41536  0.37674  0.18113  Biso   1.000  C 
  C40      1.0000 0.14544  0.17650  0.85626  Biso   1.000  C 
  C41      1.0000 0.18412  0.17149  0.04907  Biso   1.000  C 
  C42      1.0000 0.41538  0.62333  0.68111  Biso   1.000  C 
  C43      1.0000 0.91537  0.12332  0.68110  Biso   1.000  C 
  C44      1.0000 0.28286  0.21497  0.27984  Biso   1.000  C 
  C45      1.0000 0.08616  0.11956  0.82044  Biso   1.000  C 
  C46      1.0000 0.16290  0.23222  0.69151  Biso   1.000  C 
  C47      1.0000 0.74181  0.72013  0.08464  Biso   1.000  C 
  C48      1.0000 0.24175  0.22031  0.08472  Biso   1.000  C 
  H1       1.0000 0.13161  0.23400  0.54136  Biso   1.000  H 
  H2       1.0000 0.66990  0.37173  0.67359  Biso   1.000  H 
  H3       1.0000 0.16987  0.12837  0.17358  Biso   1.000  H 
  H4       1.0000 0.97804  0.86311  0.72788  Biso   1.000  H 
  H5       1.0000 0.47803  0.36310  0.72789  Biso   1.000  H 
  H6       1.0000 0.83095  0.13086  0.32925  Biso   1.000  H 
  H7       1.0000 0.97803  0.13696  0.22782  Biso   1.000  H 
  H8       1.0000 0.26952  0.17083  0.40506  Biso   1.000  H 
  H9       1.0000 0.76959  0.67064  0.40497  Biso   1.000  H 
  H10      1.0000 0.47806  0.63697  0.22783  Biso   1.000  H 
  H11      1.0000 0.63165  0.73387  0.54134  Biso   1.000  H 
  H12      1.0000 0.86957  0.76201  0.46096  Biso   1.000  H 
  H13      1.0000 0.73156  0.82665  0.59791  Biso   1.000  H 
  H14      1.0000 0.63157  0.26600  0.04146  Biso   1.000  H 
  H15      1.0000 0.83099  0.86908  0.82919  Biso   1.000  H 
  H16      1.0000 0.26956  0.82927  0.90502  Biso   1.000  H 
  H17      1.0000 0.76956  0.32929  0.90500  Biso   1.000  H 
  H18      1.0000 0.86956  0.23799  0.96095  Biso   1.000  H 
  H19      1.0000 0.36952  0.26213  0.46102  Biso   1.000  H 
  H20      1.0000 0.36956  0.73797  0.96097  Biso   1.000  H 
  H21      1.0000 0.23150  0.67326  0.09801  Biso   1.000  H 
  H22      1.0000 0.16990  0.87172  0.67360  Biso   1.000  H 
  H23      1.0000 0.13159  0.76605  0.04144  Biso   1.000  H 
  H24      1.0000 0.33096  0.36916  0.82922  Biso   1.000  H 
  H25      1.0000 0.23152  0.32679  0.59797  Biso   1.000  H 
  H26      1.0000 0.66993  0.62821  0.17354  Biso   1.000  H 
  H27      1.0000 0.73148  0.17321  0.09802  Biso   1.000  H 
  H28      1.0000 0.33096  0.63089  0.32924  Biso   1.000  H 
  O1       1.0000 0.06923  0.08385  0.97802  Biso   1.000  O 
  O2       1.0000 0.49940  0.56797  0.24760  Biso   1.000  O 
  O3       1.0000 0.55678  0.60952  0.63443  Biso   1.000  O 
  O4       1.0000 0.06923  0.91623  0.47807  Biso   1.000  O 
  O5       1.0000 0.94403  0.10969  0.86762  Biso   1.000  O 
  O6       1.0000 0.93299  0.09160  0.52160  Biso   1.000  O 
  O7       1.0000 0.43300  0.59162  0.52160  Biso   1.000  O 
  O8       1.0000 0.05676  0.10957  0.63441  Biso   1.000  O 
  O9       1.0000 0.99939  0.06798  0.24758  Biso   1.000  O 
  O10      1.0000 0.49939  0.43209  0.74762  Biso   1.000  O 
  O11      1.0000 0.56922  0.41620  0.47807  Biso   1.000  O 
  O12      1.0000 0.94403  0.89035  0.36766  Biso   1.000  O 
  O13      1.0000 0.44402  0.39037  0.36765  Biso   1.000  O 
  O14      1.0000 0.99940  0.93209  0.74760  Biso   1.000  O 
  O15      1.0000 0.05677  0.89051  0.13447  Biso   1.000  O 
  O16      1.0000 0.56925  0.58380  0.97805  Biso   1.000  O 
  O17      1.0000 0.55676  0.39049  0.13448  Biso   1.000  O 
  O18      1.0000 0.44404  0.60970  0.86763  Biso   1.000  O 
  O19      1.0000 0.43299  0.40847  0.02163  Biso   1.000  O 
  O20      1.0000 0.93301  0.90845  0.02163  Biso   1.000  O 
