data_image0
_cell_length_a       24.9975
_cell_length_b       6.43719
_cell_length_c       6.58775
_cell_angle_alpha    90.0661
_cell_angle_beta     108.816
_cell_angle_gamma    90.016

_symmetry_space_group_name_H-M    "P 1"
_symmetry_int_tables_number       1

loop_
  _symmetry_equiv_pos_as_xyz
  'x, y, z'

loop_
  _atom_site_label
  _atom_site_occupancy
  _atom_site_fract_x
  _atom_site_fract_y
  _atom_site_fract_z
  _atom_site_thermal_displace_type
  _atom_site_B_iso_or_equiv
  _atom_site_type_symbol
  Al1      1.0000 0.49972  0.50019  0.50060  Biso   1.000  Al
  Al2      1.0000 0.99969  0.00015  0.49940  Biso   1.000  Al
  Al3      1.0000 0.99970  0.99995  0.99944  Biso   1.000  Al
  Al4      1.0000 0.49972  0.49999  0.00062  Biso   1.000  Al
  C1       1.0000 0.15805  0.70279  0.19420  Biso   1.000  C 
  C2       1.0000 0.65792  0.79752  0.69527  Biso   1.000  C 
  C3       1.0000 0.14273  0.75940  0.37637  Biso   1.000  C 
  C4       1.0000 0.18404  0.79634  0.57145  Biso   1.000  C 
  C5       1.0000 0.08224  0.79898  0.34948  Biso   1.000  C 
  C6       1.0000 0.24194  0.77895  0.59213  Biso   1.000  C 
  C7       1.0000 0.64274  0.25941  0.37734  Biso   1.000  C 
  C8       1.0000 0.68415  0.29634  0.57222  Biso   1.000  C 
  C9       1.0000 0.78550  0.31586  0.78974  Biso   1.000  C 
  C10      1.0000 0.58226  0.29905  0.35071  Biso   1.000  C 
  C11      1.0000 0.65794  0.20279  0.19491  Biso   1.000  C 
  C12      1.0000 0.21399  0.31611  0.71057  Biso   1.000  C 
  C13      1.0000 0.85662  0.75926  0.12252  Biso   1.000  C 
  C14      1.0000 0.81520  0.79640  0.92783  Biso   1.000  C 
  C15      1.0000 0.71384  0.81613  0.71065  Biso   1.000  C 
  C16      1.0000 0.91712  0.79865  0.14914  Biso   1.000  C 
  C17      1.0000 0.35662  0.25928  0.12342  Biso   1.000  C 
  C18      1.0000 0.75734  0.77907  0.90781  Biso   1.000  C 
  C19      1.0000 0.84143  0.70262  0.30484  Biso   1.000  C 
  C20      1.0000 0.25739  0.27907  0.90796  Biso   1.000  C 
  C21      1.0000 0.74202  0.27895  0.59236  Biso   1.000  C 
  C22      1.0000 0.28532  0.81588  0.78974  Biso   1.000  C 
  C23      1.0000 0.31528  0.29640  0.92855  Biso   1.000  C 
  C24      1.0000 0.34131  0.20262  0.30550  Biso   1.000  C 
  C25      1.0000 0.58226  0.70140  0.85108  Biso   1.000  C 
  C26      1.0000 0.24197  0.22095  0.09215  Biso   1.000  C 
  C27      1.0000 0.68418  0.70374  0.07228  Biso   1.000  C 
  C28      1.0000 0.85662  0.24049  0.62284  Biso   1.000  C 
  C29      1.0000 0.81521  0.20348  0.42797  Biso   1.000  C 
  C30      1.0000 0.71385  0.18399  0.21043  Biso   1.000  C 
  C31      1.0000 0.75734  0.22089  0.40779  Biso   1.000  C 
  C32      1.0000 0.84141  0.29707  0.80525  Biso   1.000  C 
  C33      1.0000 0.35660  0.74045  0.62368  Biso   1.000  C 
  C34      1.0000 0.31528  0.70344  0.42860  Biso   1.000  C 
  C35      1.0000 0.21399  0.68397  0.21025  Biso   1.000  C 
  C36      1.0000 0.25738  0.72087  0.40786  Biso   1.000  C 
  C37      1.0000 0.91711  0.20106  0.64953  Biso   1.000  C 
  C38      1.0000 0.78552  0.68393  0.28946  Biso   1.000  C 
  C39      1.0000 0.34127  0.79708  0.80582  Biso   1.000  C 
  C40      1.0000 0.41714  0.29865  0.15028  Biso   1.000  C 
  C41      1.0000 0.14274  0.24084  0.87674  Biso   1.000  C 
  C42      1.0000 0.18408  0.20369  0.07161  Biso   1.000  C 
  C43      1.0000 0.41711  0.70108  0.65058  Biso   1.000  C 
  C44      1.0000 0.28537  0.18389  0.28957  Biso   1.000  C 
  C45      1.0000 0.08224  0.20146  0.84986  Biso   1.000  C 
  C46      1.0000 0.64275  0.74087  0.87764  Biso   1.000  C 
  C47      1.0000 0.15805  0.29747  0.69465  Biso   1.000  C 
  C48      1.0000 0.74204  0.72098  0.09230  Biso   1.000  C 
  H1       1.0000 0.67186  0.34128  0.71043  Biso   1.000  H 
  H2       1.0000 0.72555  0.85960  0.57094  Biso   1.000  H 
  H3       1.0000 0.17167  0.15871  0.20946  Biso   1.000  H 
  H4       1.0000 0.99958  0.71754  0.74874  Biso   1.000  H 
  H5       1.0000 0.49947  0.21762  0.74991  Biso   1.000  H 
  H6       1.0000 0.62446  0.82199  0.54357  Biso   1.000  H 
  H7       1.0000 0.99944  0.28252  0.24917  Biso   1.000  H 
  H8       1.0000 0.27356  0.14031  0.42900  Biso   1.000  H 
  H9       1.0000 0.77383  0.64042  0.42916  Biso   1.000  H 
  H10      1.0000 0.82750  0.15854  0.28977  Biso   1.000  H 
  H11      1.0000 0.49933  0.78257  0.25038  Biso   1.000  H 
  H12      1.0000 0.62449  0.17839  0.04310  Biso   1.000  H 
  H13      1.0000 0.87489  0.67822  0.45653  Biso   1.000  H 
  H14      1.0000 0.12467  0.32206  0.54277  Biso   1.000  H 
  H15      1.0000 0.77379  0.35932  0.92953  Biso   1.000  H 
  H16      1.0000 0.82748  0.84140  0.78969  Biso   1.000  H 
  H17      1.0000 0.87485  0.32139  0.95714  Biso   1.000  H 
  H18      1.0000 0.17163  0.84127  0.70939  Biso   1.000  H 
  H19      1.0000 0.37469  0.17815  0.45744  Biso   1.000  H 
  H20      1.0000 0.37462  0.82154  0.95787  Biso   1.000  H 
  H21      1.0000 0.22582  0.64033  0.07077  Biso   1.000  H 
  H22      1.0000 0.27349  0.85945  0.92922  Biso   1.000  H 
  H23      1.0000 0.12468  0.67829  0.04216  Biso   1.000  H 
  H24      1.0000 0.32768  0.34138  0.79066  Biso   1.000  H 
  H25      1.0000 0.22581  0.35968  0.57114  Biso   1.000  H 
  H26      1.0000 0.32768  0.65851  0.29064  Biso   1.000  H 
  H27      1.0000 0.67189  0.65872  0.21039  Biso   1.000  H 
  H28      1.0000 0.72557  0.14045  0.07069  Biso   1.000  H 
  O1       1.0000 0.54712  0.71538  0.66108  Biso   1.000  O 
  O2       1.0000 0.06881  0.85303  0.51259  Biso   1.000  O 
  O3       1.0000 0.95220  0.21485  0.83968  Biso   1.000  O 
  O4       1.0000 0.99967  0.13212  0.24953  Biso   1.000  O 
  O5       1.0000 0.93053  0.14734  0.48632  Biso   1.000  O 
  O6       1.0000 0.43056  0.64741  0.48741  Biso   1.000  O 
  O7       1.0000 0.04713  0.21541  0.65980  Biso   1.000  O 
  O8       1.0000 0.06881  0.14757  0.01292  Biso   1.000  O 
  O9       1.0000 0.45219  0.71496  0.84074  Biso   1.000  O 
  O10      1.0000 0.43058  0.35230  0.98718  Biso   1.000  O 
  O11      1.0000 0.54716  0.28515  0.16060  Biso   1.000  O 
  O12      1.0000 0.56885  0.35306  0.51387  Biso   1.000  O 
  O13      1.0000 0.95223  0.78490  0.33923  Biso   1.000  O 
  O14      1.0000 0.45223  0.28490  0.34037  Biso   1.000  O 
  O15      1.0000 0.99970  0.86796  0.74924  Biso   1.000  O 
  O16      1.0000 0.49969  0.36803  0.75043  Biso   1.000  O 
  O17      1.0000 0.04715  0.78501  0.15937  Biso   1.000  O 
  O18      1.0000 0.56886  0.64745  0.01419  Biso   1.000  O 
  O19      1.0000 0.49969  0.63216  0.25070  Biso   1.000  O 
  O20      1.0000 0.93056  0.85227  0.98604  Biso   1.000  O 
