data_image0
_cell_length_a       22.2734
_cell_length_b       13.2383
_cell_length_c       6.65036
_cell_angle_alpha    89.9988
_cell_angle_beta     102.766
_cell_angle_gamma    89.9999

_symmetry_space_group_name_H-M    "P 1"
_symmetry_int_tables_number       1

loop_
  _symmetry_equiv_pos_as_xyz
  'x, y, z'

loop_
  _atom_site_label
  _atom_site_occupancy
  _atom_site_fract_x
  _atom_site_fract_y
  _atom_site_fract_z
  _atom_site_thermal_displace_type
  _atom_site_B_iso_or_equiv
  _atom_site_type_symbol
  Al1      1.0000 0.50093  0.50116  0.49999  Biso   1.000  Al
  Al2      1.0000 0.00093  0.00115  0.49998  Biso   1.000  Al
  Al3      1.0000 0.00093  0.99886  1.00000  Biso   1.000  Al
  Al4      1.0000 0.50093  0.49887  0.00001  Biso   1.000  Al
  C1       1.0000 0.68533  0.66964  0.04856  Biso   1.000  C 
  C2       1.0000 0.85526  0.17388  0.64718  Biso   1.000  C 
  C3       1.0000 0.81576  0.17269  0.45426  Biso   1.000  C 
  C4       1.0000 0.71705  0.22314  0.22231  Biso   1.000  C 
  C5       1.0000 0.83880  0.22772  0.81187  Biso   1.000  C 
  C6       1.0000 0.35527  0.67391  0.64721  Biso   1.000  C 
  C7       1.0000 0.31578  0.67271  0.45428  Biso   1.000  C 
  C8       1.0000 0.21707  0.72316  0.22232  Biso   1.000  C 
  C9       1.0000 0.25865  0.72391  0.41826  Biso   1.000  C 
  C10      1.0000 0.78409  0.72011  0.28033  Biso   1.000  C 
  C11      1.0000 0.33881  0.72773  0.81190  Biso   1.000  C 
  C12      1.0000 0.64611  0.67057  0.85524  Biso   1.000  C 
  C13      1.0000 0.41425  0.38379  0.18180  Biso   1.000  C 
  C14      1.0000 0.14607  0.17066  0.85526  Biso   1.000  C 
  C15      1.0000 0.18529  0.16974  0.04859  Biso   1.000  C 
  C16      1.0000 0.41428  0.61629  0.68182  Biso   1.000  C 
  C17      1.0000 0.91426  0.11625  0.68181  Biso   1.000  C 
  C18      1.0000 0.28404  0.22023  0.28036  Biso   1.000  C 
  C19      1.0000 0.08722  0.11274  0.81975  Biso   1.000  C 
  C20      1.0000 0.74241  0.72096  0.08458  Biso   1.000  C 
  C21      1.0000 0.24235  0.22108  0.08462  Biso   1.000  C 
  C22      1.0000 0.75864  0.22389  0.41824  Biso   1.000  C 
  C23      1.0000 0.58724  0.61270  0.81975  Biso   1.000  C 
  C24      1.0000 0.16243  0.22437  0.69027  Biso   1.000  C 
  C25      1.0000 0.31575  0.32737  0.95426  Biso   1.000  C 
  C26      1.0000 0.25862  0.27617  0.91823  Biso   1.000  C 
  C27      1.0000 0.16246  0.77570  0.19030  Biso   1.000  C 
  C28      1.0000 0.66248  0.72428  0.69026  Biso   1.000  C 
  C29      1.0000 0.14609  0.82940  0.35528  Biso   1.000  C 
  C30      1.0000 0.18531  0.83033  0.54860  Biso   1.000  C 
  C31      1.0000 0.64608  0.32938  0.35526  Biso   1.000  C 
  C32      1.0000 0.68530  0.33031  0.54858  Biso   1.000  C 
  C33      1.0000 0.78406  0.27986  0.78034  Biso   1.000  C 
  C34      1.0000 0.58721  0.38728  0.31976  Biso   1.000  C 
  C35      1.0000 0.66244  0.27567  0.19029  Biso   1.000  C 
  C36      1.0000 0.85529  0.82609  0.14718  Biso   1.000  C 
  C37      1.0000 0.24238  0.77901  0.58464  Biso   1.000  C 
  C38      1.0000 0.81580  0.82726  0.95424  Biso   1.000  C 
  C39      1.0000 0.71710  0.77679  0.72226  Biso   1.000  C 
  C40      1.0000 0.91428  0.88373  0.18181  Biso   1.000  C 
  C41      1.0000 0.35524  0.32618  0.14718  Biso   1.000  C 
  C42      1.0000 0.28407  0.77987  0.78037  Biso   1.000  C 
  C43      1.0000 0.08723  0.88730  0.31976  Biso   1.000  C 
  C44      1.0000 0.75867  0.77605  0.91820  Biso   1.000  C 
  C45      1.0000 0.83882  0.77226  0.31188  Biso   1.000  C 
  C46      1.0000 0.74237  0.27899  0.58461  Biso   1.000  C 
  C47      1.0000 0.21704  0.27691  0.72229  Biso   1.000  C 
  C48      1.0000 0.33877  0.27236  0.31189  Biso   1.000  C 
  H1       1.0000 0.77170  0.32244  0.90576  Biso   1.000  H 
  H2       1.0000 0.87046  0.22731  0.96229  Biso   1.000  H 
  H3       1.0000 0.37043  0.27279  0.46232  Biso   1.000  H 
  H4       1.0000 0.37047  0.72732  0.96233  Biso   1.000  H 
  H5       1.0000 0.22952  0.68056  0.09707  Biso   1.000  H 
  H6       1.0000 0.67189  0.62809  0.17330  Biso   1.000  H 
  H7       1.0000 0.13081  0.77701  0.03975  Biso   1.000  H 
  H8       1.0000 0.32887  0.36921  0.82931  Biso   1.000  H 
  H9       1.0000 0.22949  0.31950  0.59704  Biso   1.000  H 
  H10      1.0000 0.72950  0.18053  0.09705  Biso   1.000  H 
  H11      1.0000 0.32891  0.63087  0.32934  Biso   1.000  H 
  H12      1.0000 0.27171  0.82244  0.90579  Biso   1.000  H 
  H13      1.0000 0.17187  0.87189  0.67332  Biso   1.000  H 
  H14      1.0000 0.82893  0.86909  0.82931  Biso   1.000  H 
  H15      1.0000 0.87048  0.77268  0.46232  Biso   1.000  H 
  H16      1.0000 0.72955  0.81939  0.59701  Biso   1.000  H 
  H17      1.0000 0.63079  0.27699  0.03974  Biso   1.000  H 
  H18      1.0000 0.13079  0.22304  0.53972  Biso   1.000  H 
  H19      1.0000 0.17185  0.12819  0.17333  Biso   1.000  H 
  H20      1.0000 0.97793  0.87313  0.72919  Biso   1.000  H 
  H21      1.0000 0.47791  0.37314  0.72919  Biso   1.000  H 
  H22      1.0000 0.67186  0.37188  0.67331  Biso   1.000  H 
  H23      1.0000 0.97792  0.12688  0.22916  Biso   1.000  H 
  H24      1.0000 0.27168  0.17766  0.40579  Biso   1.000  H 
  H25      1.0000 0.77172  0.67753  0.40576  Biso   1.000  H 
  H26      1.0000 0.47795  0.62690  0.22920  Biso   1.000  H 
  H27      1.0000 0.63083  0.72297  0.53971  Biso   1.000  H 
  H28      1.0000 0.82888  0.13084  0.32933  Biso   1.000  H 
  O1       1.0000 0.57070  0.42212  0.47755  Biso   1.000  O 
  O2       1.0000 0.44306  0.60213  0.86819  Biso   1.000  O 
  O3       1.0000 0.55762  0.39829  0.13387  Biso   1.000  O 
  O4       1.0000 0.57073  0.57786  0.97754  Biso   1.000  O 
  O5       1.0000 0.05764  0.89831  0.13388  Biso   1.000  O 
  O6       1.0000 0.99945  0.93722  0.74797  Biso   1.000  O 
  O7       1.0000 0.44303  0.39795  0.36818  Biso   1.000  O 
  O8       1.0000 0.94305  0.89791  0.36819  Biso   1.000  O 
  O9       1.0000 0.49943  0.43722  0.74798  Biso   1.000  O 
  O10      1.0000 0.07072  0.92215  0.47755  Biso   1.000  O 
  O11      1.0000 0.05762  0.10172  0.63387  Biso   1.000  O 
  O12      1.0000 0.43148  0.58469  0.52223  Biso   1.000  O 
  O13      1.0000 0.93147  0.08466  0.52222  Biso   1.000  O 
  O14      1.0000 0.94304  0.10209  0.86818  Biso   1.000  O 
  O15      1.0000 0.55764  0.60170  0.63387  Biso   1.000  O 
  O16      1.0000 0.49945  0.56280  0.24799  Biso   1.000  O 
  O17      1.0000 0.07070  0.07790  0.97753  Biso   1.000  O 
  O18      1.0000 0.43146  0.41538  0.02221  Biso   1.000  O 
  O19      1.0000 0.99943  0.06279  0.24796  Biso   1.000  O 
  O20      1.0000 0.93148  0.91532  0.02222  Biso   1.000  O 
