data_image0
_cell_length_a       23.9824
_cell_length_b       11.3535
_cell_length_c       6.71166
_cell_angle_alpha    90.1175
_cell_angle_beta     83.6409
_cell_angle_gamma    90.012

_symmetry_space_group_name_H-M    "P 1"
_symmetry_int_tables_number       1

loop_
  _symmetry_equiv_pos_as_xyz
  'x, y, z'

loop_
  _atom_site_label
  _atom_site_occupancy
  _atom_site_fract_x
  _atom_site_fract_y
  _atom_site_fract_z
  _atom_site_thermal_displace_type
  _atom_site_B_iso_or_equiv
  _atom_site_type_symbol
  C1       1.0000 0.27969  0.75884  0.16000  Biso   1.000  C 
  C2       1.0000 0.77766  0.71944  0.32012  Biso   1.000  C 
  C3       1.0000 0.72257  0.75830  0.32464  Biso   1.000  C 
  C4       1.0000 0.63748  0.85671  0.50063  Biso   1.000  C 
  C5       1.0000 0.90471  0.70791  0.61952  Biso   1.000  C 
  C6       1.0000 0.69481  0.81238  0.49667  Biso   1.000  C 
  C7       1.0000 0.90453  0.33627  0.11899  Biso   1.000  C 
  C8       1.0000 0.72495  0.82562  0.66384  Biso   1.000  C 
  C9       1.0000 0.19440  0.73279  0.99778  Biso   1.000  C 
  C10      1.0000 0.77968  0.25888  0.16006  Biso   1.000  C 
  C11      1.0000 0.60980  0.10851  0.14022  Biso   1.000  C 
  C12      1.0000 0.10980  0.60847  0.14023  Biso   1.000  C 
  C13      1.0000 0.13710  0.68825  0.00178  Biso   1.000  C 
  C14      1.0000 0.60998  0.93618  0.63969  Biso   1.000  C 
  C15      1.0000 0.19481  0.31235  0.49669  Biso   1.000  C 
  C16      1.0000 0.69439  0.23285  0.99779  Biso   1.000  C 
  C17      1.0000 0.40453  0.83628  0.11898  Biso   1.000  C 
  C18      1.0000 0.13747  0.35668  0.50066  Biso   1.000  C 
  C19      1.0000 0.63709  0.18829  0.00178  Biso   1.000  C 
  C20      1.0000 0.72456  0.22015  0.16488  Biso   1.000  C 
  C21      1.0000 0.86479  0.35665  0.98368  Biso   1.000  C 
  C22      1.0000 0.78004  0.78678  0.65929  Biso   1.000  C 
  C23      1.0000 0.89244  0.60814  0.34473  Biso   1.000  C 
  C24      1.0000 0.86505  0.68786  0.48367  Biso   1.000  C 
  C25      1.0000 0.40470  0.20791  0.61950  Biso   1.000  C 
  C26      1.0000 0.09734  0.70833  0.86644  Biso   1.000  C 
  C27      1.0000 0.80743  0.31234  0.98779  Biso   1.000  C 
  C28      1.0000 0.22495  0.32559  0.66384  Biso   1.000  C 
  C29      1.0000 0.09779  0.33627  0.36501  Biso   1.000  C 
  C30      1.0000 0.22457  0.72009  0.16485  Biso   1.000  C 
  C31      1.0000 0.80778  0.73259  0.48734  Biso   1.000  C 
  C32      1.0000 0.22256  0.25827  0.32466  Biso   1.000  C 
  C33      1.0000 0.39244  0.10814  0.34472  Biso   1.000  C 
  C34      1.0000 0.28004  0.28676  0.65928  Biso   1.000  C 
  C35      1.0000 0.36479  0.85664  0.98365  Biso   1.000  C 
  C36      1.0000 0.27765  0.21942  0.32013  Biso   1.000  C 
  C37      1.0000 0.10997  0.43615  0.63971  Biso   1.000  C 
  C38      1.0000 0.22213  0.78630  0.82553  Biso   1.000  C 
  C39      1.0000 0.30744  0.81232  0.98777  Biso   1.000  C 
  C40      1.0000 0.59779  0.83629  0.36499  Biso   1.000  C 
  C41      1.0000 0.72213  0.28634  0.82554  Biso   1.000  C 
  C42      1.0000 0.30778  0.23257  0.48733  Biso   1.000  C 
  C43      1.0000 0.36504  0.18786  0.48364  Biso   1.000  C 
  C44      1.0000 0.59733  0.20837  0.86643  Biso   1.000  C 
  C45      1.0000 0.89225  0.43604  0.84492  Biso   1.000  C 
  C46      1.0000 0.27725  0.82503  0.82069  Biso   1.000  C 
  C47      1.0000 0.39225  0.93602  0.84487  Biso   1.000  C 
  C48      1.0000 0.77725  0.32506  0.82072  Biso   1.000  C 
  H1       1.0000 0.20444  0.67971  0.30175  Biso   1.000  H 
  H2       1.0000 0.10057  0.28106  0.23192  Biso   1.000  H 
  H3       1.0000 0.80134  0.24869  0.29364  Biso   1.000  H 
  H4       1.0000 0.12474  0.56749  0.27040  Biso   1.000  H 
  H5       1.0000 0.40175  0.78119  0.25179  Biso   1.000  H 
  H6       1.0000 0.37759  0.06722  0.21406  Biso   1.000  H 
  H7       1.0000 0.70442  0.17978  0.30177  Biso   1.000  H 
  H8       1.0000 0.20095  0.24772  0.19099  Biso   1.000  H 
  H9       1.0000 0.79741  0.36538  0.68384  Biso   1.000  H 
  H10      1.0000 0.29780  0.17859  0.18337  Biso   1.000  H 
  H11      1.0000 0.60058  0.78109  0.23191  Biso   1.000  H 
  H12      1.0000 0.90176  0.28117  0.25180  Biso   1.000  H 
  H13      1.0000 0.37739  0.97711  0.71467  Biso   1.000  H 
  H14      1.0000 0.70097  0.74775  0.19096  Biso   1.000  H 
  H15      1.0000 0.87759  0.56722  0.21409  Biso   1.000  H 
  H16      1.0000 0.79781  0.67862  0.18337  Biso   1.000  H 
  H17      1.0000 0.70479  0.86646  0.80053  Biso   1.000  H 
  H18      1.0000 0.90199  0.76306  0.75264  Biso   1.000  H 
  H19      1.0000 0.20047  0.79647  0.69194  Biso   1.000  H 
  H20      1.0000 0.62474  0.06753  0.27039  Biso   1.000  H 
  H21      1.0000 0.20480  0.36645  0.80055  Biso   1.000  H 
  H22      1.0000 0.30167  0.29737  0.79290  Biso   1.000  H 
  H23      1.0000 0.80167  0.79737  0.79291  Biso   1.000  H 
  H24      1.0000 0.87738  0.47713  0.71474  Biso   1.000  H 
  H25      1.0000 0.40199  0.26306  0.75262  Biso   1.000  H 
  H26      1.0000 0.12480  0.47723  0.77026  Biso   1.000  H 
  H27      1.0000 0.62481  0.97727  0.77022  Biso   1.000  H 
  H28      1.0000 0.29740  0.86538  0.68382  Biso   1.000  H 
  H29      1.0000 0.09997  0.76358  0.73382  Biso   1.000  H 
  H30      1.0000 0.59997  0.26362  0.73382  Biso   1.000  H 
  H31      1.0000 0.30135  0.74865  0.29359  Biso   1.000  H 
  H32      1.0000 0.70047  0.29652  0.69195  Biso   1.000  H 
  N1       1.0000 0.45166  0.89899  0.06435  Biso   1.000  N 
  N2       1.0000 0.55849  0.08275  0.08921  Biso   1.000  N 
  N3       1.0000 0.55036  0.14511  0.92071  Biso   1.000  N 
  N4       1.0000 0.05861  0.46142  0.58884  Biso   1.000  N 
  N5       1.0000 0.94372  0.58241  0.39587  Biso   1.000  N 
  N6       1.0000 0.05036  0.64508  0.92073  Biso   1.000  N 
  N7       1.0000 0.95172  0.64475  0.56497  Biso   1.000  N 
  N8       1.0000 0.44372  0.08242  0.39586  Biso   1.000  N 
  N9       1.0000 0.05066  0.39904  0.41973  Biso   1.000  N 
  N10      1.0000 0.95166  0.39898  0.06436  Biso   1.000  N 
  N11      1.0000 0.44365  0.96131  0.89563  Biso   1.000  N 
  N12      1.0000 0.05849  0.58272  0.08923  Biso   1.000  N 
  N13      1.0000 0.94365  0.46131  0.89567  Biso   1.000  N 
  N14      1.0000 0.55066  0.89906  0.41971  Biso   1.000  N 
  N15      1.0000 0.55862  0.96145  0.58881  Biso   1.000  N 
  N16      1.0000 0.45172  0.14476  0.56496  Biso   1.000  N 
  Zn1      1.0000 0.00124  0.47779  0.24199  Biso   1.000  Zn
  Zn2      1.0000 0.50124  0.97780  0.24196  Biso   1.000  Zn
  Zn3      1.0000 0.00112  0.56579  0.74236  Biso   1.000  Zn
  Zn4      1.0000 0.50114  0.06581  0.74236  Biso   1.000  Zn
