data_image0
_cell_length_a       24.5965
_cell_length_b       9.25917
_cell_length_c       7.0615
_cell_angle_alpha    89.871
_cell_angle_beta     88.6682
_cell_angle_gamma    89.9881

_symmetry_space_group_name_H-M    "P 1"
_symmetry_int_tables_number       1

loop_
  _symmetry_equiv_pos_as_xyz
  'x, y, z'

loop_
  _atom_site_label
  _atom_site_occupancy
  _atom_site_fract_x
  _atom_site_fract_y
  _atom_site_fract_z
  _atom_site_thermal_displace_type
  _atom_site_B_iso_or_equiv
  _atom_site_type_symbol
  C1       1.0000 0.28641  0.69584  0.10737  Biso   1.000  C 
  C2       1.0000 0.80809  0.30087  0.98278  Biso   1.000  C 
  C3       1.0000 0.23083  0.37663  0.61659  Biso   1.000  C 
  C4       1.0000 0.09779  0.32107  0.36563  Biso   1.000  C 
  C5       1.0000 0.23087  0.66763  0.11667  Biso   1.000  C 
  C6       1.0000 0.80788  0.74318  0.48250  Biso   1.000  C 
  C7       1.0000 0.39477  0.13271  0.33337  Biso   1.000  C 
  C8       1.0000 0.28636  0.34833  0.60674  Biso   1.000  C 
  C9       1.0000 0.36599  0.83712  0.97738  Biso   1.000  C 
  C10      1.0000 0.27121  0.16761  0.36862  Biso   1.000  C 
  C11      1.0000 0.10731  0.41192  0.65160  Biso   1.000  C 
  C12      1.0000 0.21598  0.84824  0.87714  Biso   1.000  C 
  C13      1.0000 0.30807  0.80097  0.98278  Biso   1.000  C 
  C14      1.0000 0.59779  0.82100  0.36570  Biso   1.000  C 
  C15      1.0000 0.71600  0.34814  0.87706  Biso   1.000  C 
  C16      1.0000 0.30789  0.24321  0.48247  Biso   1.000  C 
  C17      1.0000 0.36583  0.20740  0.47666  Biso   1.000  C 
  C18      1.0000 0.59798  0.22387  0.86436  Biso   1.000  C 
  C19      1.0000 0.89492  0.41187  0.83375  Biso   1.000  C 
  C20      1.0000 0.27152  0.87648  0.86792  Biso   1.000  C 
  C21      1.0000 0.39491  0.91197  0.83374  Biso   1.000  C 
  C22      1.0000 0.77154  0.37637  0.86789  Biso   1.000  C 
  C23      1.0000 0.09796  0.72392  0.86446  Biso   1.000  C 
  C24      1.0000 0.40436  0.22427  0.61892  Biso   1.000  C 
  C25      1.0000 0.21567  0.19585  0.37852  Biso   1.000  C 
  C26      1.0000 0.89476  0.63262  0.33346  Biso   1.000  C 
  C27      1.0000 0.77120  0.66757  0.36867  Biso   1.000  C 
  C28      1.0000 0.71566  0.69580  0.37861  Biso   1.000  C 
  C29      1.0000 0.63622  0.83717  0.50837  Biso   1.000  C 
  C30      1.0000 0.86582  0.70737  0.47671  Biso   1.000  C 
  C31      1.0000 0.69414  0.80101  0.50278  Biso   1.000  C 
  C32      1.0000 0.90446  0.32072  0.12010  Biso   1.000  C 
  C33      1.0000 0.73081  0.87652  0.61671  Biso   1.000  C 
  C34      1.0000 0.19432  0.74320  0.00183  Biso   1.000  C 
  C35      1.0000 0.78642  0.19573  0.10733  Biso   1.000  C 
  C36      1.0000 0.60734  0.13306  0.15097  Biso   1.000  C 
  C37      1.0000 0.10733  0.63313  0.15107  Biso   1.000  C 
  C38      1.0000 0.90436  0.72425  0.61896  Biso   1.000  C 
  C39      1.0000 0.60728  0.91184  0.65169  Biso   1.000  C 
  C40      1.0000 0.13638  0.70743  0.00727  Biso   1.000  C 
  C41      1.0000 0.78634  0.84826  0.60683  Biso   1.000  C 
  C42      1.0000 0.73088  0.16749  0.11657  Biso   1.000  C 
  C43      1.0000 0.63639  0.20733  0.00714  Biso   1.000  C 
  C44      1.0000 0.86600  0.33703  0.97741  Biso   1.000  C 
  C45      1.0000 0.40445  0.82078  0.12007  Biso   1.000  C 
  C46      1.0000 0.69434  0.24307  0.00172  Biso   1.000  C 
  C47      1.0000 0.19415  0.30111  0.50266  Biso   1.000  C 
  C48      1.0000 0.13624  0.33727  0.50825  Biso   1.000  C 
  H1       1.0000 0.18889  0.91037  0.78777  Biso   1.000  H 
  H2       1.0000 0.88153  0.44633  0.69538  Biso   1.000  H 
  H3       1.0000 0.62064  0.09868  0.28947  Biso   1.000  H 
  H4       1.0000 0.21583  0.46124  0.71167  Biso   1.000  H 
  H5       1.0000 0.31354  0.41050  0.69536  Biso   1.000  H 
  H6       1.0000 0.81353  0.91044  0.69542  Biso   1.000  H 
  H7       1.0000 0.39970  0.27216  0.75865  Biso   1.000  H 
  H8       1.0000 0.60275  0.27133  0.72414  Biso   1.000  H 
  H9       1.0000 0.62064  0.94617  0.78994  Biso   1.000  H 
  H10      1.0000 0.28660  0.96103  0.77246  Biso   1.000  H 
  H11      1.0000 0.10273  0.77141  0.72425  Biso   1.000  H 
  H12      1.0000 0.31350  0.63365  0.19669  Biso   1.000  H 
  H13      1.0000 0.68892  0.41025  0.78764  Biso   1.000  H 
  H14      1.0000 0.89969  0.77219  0.75866  Biso   1.000  H 
  H15      1.0000 0.12068  0.44627  0.78983  Biso   1.000  H 
  H16      1.0000 0.71582  0.96110  0.71187  Biso   1.000  H 
  H17      1.0000 0.10249  0.27354  0.22570  Biso   1.000  H 
  H18      1.0000 0.88137  0.59785  0.19542  Biso   1.000  H 
  H19      1.0000 0.78621  0.58299  0.27356  Biso   1.000  H 
  H20      1.0000 0.21577  0.58308  0.21214  Biso   1.000  H 
  H21      1.0000 0.81351  0.13352  0.19666  Biso   1.000  H 
  H22      1.0000 0.39977  0.77301  0.26012  Biso   1.000  H 
  H23      1.0000 0.38138  0.09800  0.19530  Biso   1.000  H 
  H24      1.0000 0.71578  0.08293  0.21201  Biso   1.000  H 
  H25      1.0000 0.12063  0.59876  0.28957  Biso   1.000  H 
  H26      1.0000 0.78663  0.46094  0.77246  Biso   1.000  H 
  H27      1.0000 0.28621  0.08300  0.27356  Biso   1.000  H 
  H28      1.0000 0.60250  0.77346  0.22578  Biso   1.000  H 
  H29      1.0000 0.89978  0.27299  0.26018  Biso   1.000  H 
  H30      1.0000 0.38151  0.94645  0.69537  Biso   1.000  H 
  H31      1.0000 0.68847  0.63361  0.29003  Biso   1.000  H 
  H32      1.0000 0.18848  0.13366  0.28995  Biso   1.000  H 
  N1       1.0000 0.95199  0.38366  0.06654  Biso   1.000  N 
  N2       1.0000 0.45196  0.16169  0.56556  Biso   1.000  N 
  N3       1.0000 0.55636  0.94023  0.59626  Biso   1.000  N 
  N4       1.0000 0.55024  0.88387  0.41893  Biso   1.000  N 
  N5       1.0000 0.94585  0.44023  0.88898  Biso   1.000  N 
  N6       1.0000 0.05637  0.60519  0.09583  Biso   1.000  N 
  N7       1.0000 0.44583  0.94030  0.88896  Biso   1.000  N 
  N8       1.0000 0.05024  0.38389  0.41894  Biso   1.000  N 
  N9       1.0000 0.55034  0.16153  0.91802  Biso   1.000  N 
  N10      1.0000 0.95195  0.66164  0.56564  Biso   1.000  N 
  N11      1.0000 0.05033  0.66155  0.91811  Biso   1.000  N 
  N12      1.0000 0.94576  0.60483  0.38858  Biso   1.000  N 
  N13      1.0000 0.05637  0.44026  0.59626  Biso   1.000  N 
  N14      1.0000 0.55638  0.10517  0.09574  Biso   1.000  N 
  N15      1.0000 0.45198  0.88371  0.06650  Biso   1.000  N 
  N16      1.0000 0.44578  0.10493  0.38847  Biso   1.000  N 
  Zn1      1.0000 0.00113  0.55810  0.74254  Biso   1.000  Zn
  Zn2      1.0000 0.00107  0.48745  0.24246  Biso   1.000  Zn
  Zn3      1.0000 0.50108  0.98746  0.24242  Biso   1.000  Zn
  Zn4      1.0000 0.50113  0.05812  0.74246  Biso   1.000  Zn
