data_image0
_cell_length_a       23.1023
_cell_length_b       13.3319
_cell_length_c       6.67708
_cell_angle_alpha    90.0708
_cell_angle_beta     80.5226
_cell_angle_gamma    89.9993

_symmetry_space_group_name_H-M    "P 1"
_symmetry_int_tables_number       1

loop_
  _symmetry_equiv_pos_as_xyz
  'x, y, z'

loop_
  _atom_site_label
  _atom_site_occupancy
  _atom_site_fract_x
  _atom_site_fract_y
  _atom_site_fract_z
  _atom_site_thermal_displace_type
  _atom_site_B_iso_or_equiv
  _atom_site_type_symbol
  C1       1.0000 0.27846  0.76612  0.16235  Biso   1.000  C 
  C2       1.0000 0.80652  0.31942  0.99141  Biso   1.000  C 
  C3       1.0000 0.22459  0.32465  0.66216  Biso   1.000  C 
  C4       1.0000 0.09874  0.35554  0.35900  Biso   1.000  C 
  C5       1.0000 0.22334  0.77948  0.82327  Biso   1.000  C 
  C6       1.0000 0.80683  0.72557  0.49109  Biso   1.000  C 
  C7       1.0000 0.22375  0.26530  0.32224  Biso   1.000  C 
  C8       1.0000 0.38999  0.10300  0.35360  Biso   1.000  C 
  C9       1.0000 0.27880  0.27927  0.66152  Biso   1.000  C 
  C10      1.0000 0.36309  0.86857  0.99081  Biso   1.000  C 
  C11      1.0000 0.27796  0.21989  0.32160  Biso   1.000  C 
  C12      1.0000 0.11244  0.44114  0.63099  Biso   1.000  C 
  C13      1.0000 0.59869  0.85551  0.35945  Biso   1.000  C 
  C14      1.0000 0.30646  0.81951  0.99189  Biso   1.000  C 
  C15      1.0000 0.38981  0.94150  0.85367  Biso   1.000  C 
  C16      1.0000 0.27751  0.82502  0.82245  Biso   1.000  C 
  C17      1.0000 0.88984  0.44146  0.85315  Biso   1.000  C 
  C18      1.0000 0.77751  0.32492  0.82211  Biso   1.000  C 
  C19      1.0000 0.36339  0.17629  0.49056  Biso   1.000  C 
  C20      1.0000 0.30685  0.22562  0.49120  Biso   1.000  C 
  C21      1.0000 0.59849  0.18874  0.86026  Biso   1.000  C 
  C22      1.0000 0.72333  0.27937  0.82312  Biso   1.000  C 
  C23      1.0000 0.09851  0.68880  0.85995  Biso   1.000  C 
  C24      1.0000 0.22430  0.72060  0.16316  Biso   1.000  C 
  C25      1.0000 0.86338  0.67626  0.49030  Biso   1.000  C 
  C26      1.0000 0.88998  0.60301  0.35325  Biso   1.000  C 
  C27      1.0000 0.77790  0.71986  0.32157  Biso   1.000  C 
  C28      1.0000 0.72369  0.76528  0.32239  Biso   1.000  C 
  C29      1.0000 0.63902  0.86790  0.49414  Biso   1.000  C 
  C30      1.0000 0.90363  0.68856  0.62530  Biso   1.000  C 
  C31      1.0000 0.69565  0.81880  0.49289  Biso   1.000  C 
  C32      1.0000 0.40362  0.18857  0.62567  Biso   1.000  C 
  C33      1.0000 0.90345  0.35603  0.12496  Biso   1.000  C 
  C34      1.0000 0.72461  0.82459  0.66231  Biso   1.000  C 
  C35      1.0000 0.19535  0.72603  0.99368  Biso   1.000  C 
  C36      1.0000 0.77855  0.26604  0.16196  Biso   1.000  C 
  C37      1.0000 0.61239  0.10324  0.13168  Biso   1.000  C 
  C38      1.0000 0.11236  0.60331  0.13144  Biso   1.000  C 
  C39      1.0000 0.13884  0.67659  0.99462  Biso   1.000  C 
  C40      1.0000 0.61243  0.94107  0.63144  Biso   1.000  C 
  C41      1.0000 0.19567  0.31885  0.49265  Biso   1.000  C 
  C42      1.0000 0.69538  0.22594  0.99363  Biso   1.000  C 
  C43      1.0000 0.40340  0.85606  0.12549  Biso   1.000  C 
  C44      1.0000 0.13905  0.36795  0.49377  Biso   1.000  C 
  C45      1.0000 0.63885  0.17651  0.99480  Biso   1.000  C 
  C46      1.0000 0.72438  0.22050  0.16297  Biso   1.000  C 
  C47      1.0000 0.86314  0.36850  0.99028  Biso   1.000  C 
  C48      1.0000 0.77882  0.77919  0.66149  Biso   1.000  C 
  H1       1.0000 0.62782  0.06949  0.26116  Biso   1.000  H 
  H2       1.0000 0.70407  0.86473  0.79809  Biso   1.000  H 
  H3       1.0000 0.20402  0.36480  0.79792  Biso   1.000  H 
  H4       1.0000 0.40158  0.23741  0.75693  Biso   1.000  H 
  H5       1.0000 0.29938  0.28463  0.79702  Biso   1.000  H 
  H6       1.0000 0.79943  0.78450  0.79691  Biso   1.000  H 
  H7       1.0000 0.87453  0.47521  0.72344  Biso   1.000  H 
  H8       1.0000 0.70269  0.28444  0.68778  Biso   1.000  H 
  H9       1.0000 0.12784  0.47496  0.76063  Biso   1.000  H 
  H10      1.0000 0.62784  0.97486  0.76110  Biso   1.000  H 
  H11      1.0000 0.29802  0.86505  0.68665  Biso   1.000  H 
  H12      1.0000 0.10041  0.73767  0.72901  Biso   1.000  H 
  H13      1.0000 0.60036  0.23761  0.72933  Biso   1.000  H 
  H14      1.0000 0.29908  0.76105  0.29776  Biso   1.000  H 
  H15      1.0000 0.90161  0.73737  0.75661  Biso   1.000  H 
  H16      1.0000 0.20274  0.78455  0.68783  Biso   1.000  H 
  H17      1.0000 0.79841  0.67968  0.18578  Biso   1.000  H 
  H18      1.0000 0.70309  0.76001  0.18695  Biso   1.000  H 
  H19      1.0000 0.20382  0.68051  0.29887  Biso   1.000  H 
  H20      1.0000 0.79920  0.26100  0.29731  Biso   1.000  H 
  H21      1.0000 0.12777  0.56957  0.26097  Biso   1.000  H 
  H22      1.0000 0.40131  0.80730  0.25670  Biso   1.000  H 
  H23      1.0000 0.37466  0.06921  0.22378  Biso   1.000  H 
  H24      1.0000 0.10072  0.30668  0.22774  Biso   1.000  H 
  H25      1.0000 0.70394  0.18043  0.29875  Biso   1.000  H 
  H26      1.0000 0.87463  0.56924  0.22344  Biso   1.000  H 
  H27      1.0000 0.79797  0.36495  0.68628  Biso   1.000  H 
  H28      1.0000 0.29850  0.17970  0.18587  Biso   1.000  H 
  H29      1.0000 0.60066  0.80666  0.22820  Biso   1.000  H 
  H30      1.0000 0.20318  0.25999  0.18676  Biso   1.000  H 
  H31      1.0000 0.90138  0.30728  0.25613  Biso   1.000  H 
  H32      1.0000 0.37450  0.97529  0.72401  Biso   1.000  H 
  N1       1.0000 0.56083  0.96964  0.58108  Biso   1.000  N 
  N2       1.0000 0.55194  0.91623  0.41401  Biso   1.000  N 
  N3       1.0000 0.05198  0.41625  0.41349  Biso   1.000  N 
  N4       1.0000 0.94148  0.46982  0.90359  Biso   1.000  N 
  N5       1.0000 0.06082  0.57451  0.08085  Biso   1.000  N 
  N6       1.0000 0.44146  0.96981  0.90410  Biso   1.000  N 
  N7       1.0000 0.95031  0.41648  0.07058  Biso   1.000  N 
  N8       1.0000 0.45034  0.12774  0.57156  Biso   1.000  N 
  N9       1.0000 0.44151  0.07431  0.40442  Biso   1.000  N 
  N10      1.0000 0.45028  0.91646  0.07108  Biso   1.000  N 
  N11      1.0000 0.95036  0.62776  0.57107  Biso   1.000  N 
  N12      1.0000 0.05185  0.62790  0.91410  Biso   1.000  N 
  N13      1.0000 0.94151  0.57434  0.40395  Biso   1.000  N 
  N14      1.0000 0.06086  0.46970  0.58057  Biso   1.000  N 
  N15      1.0000 0.55182  0.12787  0.91455  Biso   1.000  N 
  N16      1.0000 0.56083  0.07446  0.08124  Biso   1.000  N 
  Zn1      1.0000 0.50122  0.98297  0.24272  Biso   1.000  Zn
  Zn2      1.0000 0.00115  0.56105  0.74240  Biso   1.000  Zn
  Zn3      1.0000 0.00122  0.48300  0.24234  Biso   1.000  Zn
  Zn4      1.0000 0.50112  0.06099  0.74290  Biso   1.000  Zn
