data_image0
_cell_length_a       20.5696
_cell_length_b       17.1769
_cell_length_c       6.6317
_cell_angle_alpha    90.1403
_cell_angle_beta     73.9544
_cell_angle_gamma    90.0076

_symmetry_space_group_name_H-M    "P 1"
_symmetry_int_tables_number       1

loop_
  _symmetry_equiv_pos_as_xyz
  'x, y, z'

loop_
  _atom_site_label
  _atom_site_occupancy
  _atom_site_fract_x
  _atom_site_fract_y
  _atom_site_fract_z
  _atom_site_thermal_displace_type
  _atom_site_B_iso_or_equiv
  _atom_site_type_symbol
  C1       1.0000 0.27746  0.77344  0.16397  Biso   1.000  C 
  C2       1.0000 0.80513  0.32408  0.99555  Biso   1.000  C 
  C3       1.0000 0.22434  0.32179  0.66197  Biso   1.000  C 
  C4       1.0000 0.10057  0.37855  0.34982  Biso   1.000  C 
  C5       1.0000 0.22518  0.72266  0.16004  Biso   1.000  C 
  C6       1.0000 0.80434  0.72015  0.49727  Biso   1.000  C 
  C7       1.0000 0.38250  0.10245  0.36805  Biso   1.000  C 
  C8       1.0000 0.27654  0.27095  0.66606  Biso   1.000  C 
  C9       1.0000 0.35979  0.87792  0.99958  Biso   1.000  C 
  C10      1.0000 0.27746  0.22322  0.32403  Biso   1.000  C 
  C11      1.0000 0.11946  0.44275  0.61733  Biso   1.000  C 
  C12      1.0000 0.22553  0.77045  0.81910  Biso   1.000  C 
  C13      1.0000 0.30509  0.82413  0.99568  Biso   1.000  C 
  C14      1.0000 0.60047  0.87847  0.34987  Biso   1.000  C 
  C15      1.0000 0.72554  0.27042  0.81913  Biso   1.000  C 
  C16      1.0000 0.30446  0.22031  0.49718  Biso   1.000  C 
  C17      1.0000 0.35919  0.16657  0.50092  Biso   1.000  C 
  C18      1.0000 0.60032  0.16652  0.85067  Biso   1.000  C 
  C19      1.0000 0.88259  0.44231  0.86812  Biso   1.000  C 
  C20      1.0000 0.27780  0.82124  0.82308  Biso   1.000  C 
  C21      1.0000 0.38256  0.94233  0.86824  Biso   1.000  C 
  C22      1.0000 0.77781  0.32121  0.82303  Biso   1.000  C 
  C23      1.0000 0.10032  0.66654  0.85058  Biso   1.000  C 
  C24      1.0000 0.40125  0.16642  0.63607  Biso   1.000  C 
  C25      1.0000 0.22527  0.27407  0.31992  Biso   1.000  C 
  C26      1.0000 0.88242  0.60234  0.36812  Biso   1.000  C 
  C27      1.0000 0.77737  0.72308  0.32406  Biso   1.000  C 
  C28      1.0000 0.72519  0.77394  0.31987  Biso   1.000  C 
  C29      1.0000 0.64261  0.87839  0.48477  Biso   1.000  C 
  C30      1.0000 0.85908  0.66644  0.50102  Biso   1.000  C 
  C31      1.0000 0.69731  0.82463  0.48865  Biso   1.000  C 
  C32      1.0000 0.90226  0.37796  0.13340  Biso   1.000  C 
  C33      1.0000 0.72425  0.82168  0.66193  Biso   1.000  C 
  C34      1.0000 0.19784  0.71985  0.98753  Biso   1.000  C 
  C35      1.0000 0.77754  0.27337  0.16381  Biso   1.000  C 
  C36      1.0000 0.61982  0.10213  0.11617  Biso   1.000  C 
  C37      1.0000 0.11980  0.60217  0.11613  Biso   1.000  C 
  C38      1.0000 0.90116  0.66634  0.63610  Biso   1.000  C 
  C39      1.0000 0.61945  0.94266  0.61725  Biso   1.000  C 
  C40      1.0000 0.14289  0.66634  0.98414  Biso   1.000  C 
  C41      1.0000 0.77642  0.77082  0.66613  Biso   1.000  C 
  C42      1.0000 0.72525  0.22260  0.15996  Biso   1.000  C 
  C43      1.0000 0.64290  0.16631  0.98424  Biso   1.000  C 
  C44      1.0000 0.85983  0.37788  0.99942  Biso   1.000  C 
  C45      1.0000 0.40221  0.87800  0.13359  Biso   1.000  C 
  C46      1.0000 0.69786  0.21981  0.98757  Biso   1.000  C 
  C47      1.0000 0.19738  0.32475  0.48873  Biso   1.000  C 
  C48      1.0000 0.14267  0.37849  0.48486  Biso   1.000  C 
  H1       1.0000 0.20628  0.76953  0.68139  Biso   1.000  H 
  H2       1.0000 0.86476  0.46524  0.74046  Biso   1.000  H 
  H3       1.0000 0.63758  0.07915  0.24392  Biso   1.000  H 
  H4       1.0000 0.20363  0.35958  0.79704  Biso   1.000  H 
  H5       1.0000 0.29556  0.27000  0.80423  Biso   1.000  H 
  H6       1.0000 0.79542  0.76986  0.80432  Biso   1.000  H 
  H7       1.0000 0.40205  0.20552  0.76438  Biso   1.000  H 
  H8       1.0000 0.59921  0.20577  0.72349  Biso   1.000  H 
  H9       1.0000 0.63693  0.96552  0.74599  Biso   1.000  H 
  H10      1.0000 0.29834  0.85901  0.68842  Biso   1.000  H 
  H11      1.0000 0.09921  0.70578  0.72337  Biso   1.000  H 
  H12      1.0000 0.29674  0.77433  0.30161  Biso   1.000  H 
  H13      1.0000 0.70625  0.26951  0.68149  Biso   1.000  H 
  H14      1.0000 0.90191  0.70543  0.76446  Biso   1.000  H 
  H15      1.0000 0.13691  0.46561  0.74611  Biso   1.000  H 
  H16      1.0000 0.70353  0.85948  0.79698  Biso   1.000  H 
  H17      1.0000 0.09974  0.33934  0.22178  Biso   1.000  H 
  H18      1.0000 0.86503  0.57955  0.23918  Biso   1.000  H 
  H19      1.0000 0.79805  0.68524  0.18911  Biso   1.000  H 
  H20      1.0000 0.20468  0.68486  0.29466  Biso   1.000  H 
  H21      1.0000 0.79686  0.27426  0.30138  Biso   1.000  H 
  H22      1.0000 0.40345  0.83869  0.26052  Biso   1.000  H 
  H23      1.0000 0.36512  0.07970  0.23906  Biso   1.000  H 
  H24      1.0000 0.70478  0.18479  0.29457  Biso   1.000  H 
  H25      1.0000 0.13755  0.57921  0.24389  Biso   1.000  H 
  H26      1.0000 0.79832  0.35899  0.68836  Biso   1.000  H 
  H27      1.0000 0.29813  0.18540  0.18901  Biso   1.000  H 
  H28      1.0000 0.59959  0.83926  0.22190  Biso   1.000  H 
  H29      1.0000 0.90350  0.33865  0.26034  Biso   1.000  H 
  H30      1.0000 0.36473  0.96525  0.74054  Biso   1.000  H 
  H31      1.0000 0.70618  0.77489  0.18168  Biso   1.000  H 
  H32      1.0000 0.20624  0.27503  0.18177  Biso   1.000  H 
  N1       1.0000 0.94673  0.43732  0.08330  Biso   1.000  N 
  N2       1.0000 0.44604  0.10731  0.58506  Biso   1.000  N 
  N3       1.0000 0.56801  0.97777  0.56439  Biso   1.000  N 
  N4       1.0000 0.55579  0.93769  0.40054  Biso   1.000  N 
  N5       1.0000 0.93409  0.47751  0.92073  Biso   1.000  N 
  N6       1.0000 0.06801  0.56735  0.06424  Biso   1.000  N 
  N7       1.0000 0.43407  0.97752  0.92082  Biso   1.000  N 
  N8       1.0000 0.05586  0.43775  0.40048  Biso   1.000  N 
  N9       1.0000 0.55549  0.10752  0.90156  Biso   1.000  N 
  N10      1.0000 0.94599  0.60726  0.58505  Biso   1.000  N 
  N11      1.0000 0.05548  0.60755  0.90149  Biso   1.000  N 
  N12      1.0000 0.93393  0.56729  0.42079  Biso   1.000  N 
  N13      1.0000 0.06803  0.47784  0.56439  Biso   1.000  N 
  N14      1.0000 0.56802  0.06731  0.06428  Biso   1.000  N 
  N15      1.0000 0.44670  0.93735  0.08342  Biso   1.000  N 
  N16      1.0000 0.43397  0.06735  0.42080  Biso   1.000  N 
  Zn1      1.0000 0.00081  0.55327  0.74287  Biso   1.000  Zn
  Zn2      1.0000 0.00113  0.49174  0.24232  Biso   1.000  Zn
  Zn3      1.0000 0.50111  0.99175  0.24239  Biso   1.000  Zn
  Zn4      1.0000 0.50081  0.05324  0.74294  Biso   1.000  Zn
