data_image0
_cell_length_a       20.0636
_cell_length_b       17.738
_cell_length_c       6.88631
_cell_angle_alpha    89.8362
_cell_angle_beta     77.1274
_cell_angle_gamma    89.994

_symmetry_space_group_name_H-M    "P 1"
_symmetry_int_tables_number       1

loop_
  _symmetry_equiv_pos_as_xyz
  'x, y, z'

loop_
  _atom_site_label
  _atom_site_occupancy
  _atom_site_fract_x
  _atom_site_fract_y
  _atom_site_fract_z
  _atom_site_thermal_displace_type
  _atom_site_B_iso_or_equiv
  _atom_site_type_symbol
  C1       1.0000 0.27890  0.77762  0.15922  Biso   1.000  C 
  C2       1.0000 0.77475  0.72617  0.32982  Biso   1.000  C 
  C3       1.0000 0.72284  0.77778  0.32659  Biso   1.000  C 
  C4       1.0000 0.64295  0.87966  0.48683  Biso   1.000  C 
  C5       1.0000 0.85919  0.66511  0.49843  Biso   1.000  C 
  C6       1.0000 0.69766  0.82542  0.48958  Biso   1.000  C 
  C7       1.0000 0.72731  0.81854  0.65585  Biso   1.000  C 
  C8       1.0000 0.19779  0.71914  0.98877  Biso   1.000  C 
  C9       1.0000 0.77895  0.27757  0.15915  Biso   1.000  C 
  C10      1.0000 0.61901  0.10675  0.12336  Biso   1.000  C 
  C11      1.0000 0.11898  0.60680  0.12340  Biso   1.000  C 
  C12      1.0000 0.90106  0.65866  0.63666  Biso   1.000  C 
  C13      1.0000 0.61919  0.93789  0.62323  Biso   1.000  C 
  C14      1.0000 0.14310  0.66492  0.98599  Biso   1.000  C 
  C15      1.0000 0.77923  0.76692  0.65911  Biso   1.000  C 
  C16      1.0000 0.72707  0.22595  0.15571  Biso   1.000  C 
  C17      1.0000 0.64313  0.16488  0.98598  Biso   1.000  C 
  C18      1.0000 0.85918  0.37950  0.99849  Biso   1.000  C 
  C19      1.0000 0.40058  0.88610  0.13787  Biso   1.000  C 
  C20      1.0000 0.69782  0.21911  0.98876  Biso   1.000  C 
  C21      1.0000 0.19772  0.32549  0.48944  Biso   1.000  C 
  C22      1.0000 0.14302  0.37973  0.48668  Biso   1.000  C 
  C23      1.0000 0.88291  0.60695  0.36173  Biso   1.000  C 
  C24      1.0000 0.22295  0.27789  0.32640  Biso   1.000  C 
  C25      1.0000 0.90060  0.38610  0.13784  Biso   1.000  C 
  C26      1.0000 0.10165  0.65845  0.84671  Biso   1.000  C 
  C27      1.0000 0.80451  0.32522  0.99569  Biso   1.000  C 
  C28      1.0000 0.22733  0.31857  0.65578  Biso   1.000  C 
  C29      1.0000 0.10121  0.38610  0.34822  Biso   1.000  C 
  C30      1.0000 0.40108  0.15867  0.63664  Biso   1.000  C 
  C31      1.0000 0.80443  0.71932  0.49604  Biso   1.000  C 
  C32      1.0000 0.38295  0.10698  0.36167  Biso   1.000  C 
  C33      1.0000 0.27924  0.26694  0.65904  Biso   1.000  C 
  C34      1.0000 0.35916  0.87952  0.99853  Biso   1.000  C 
  C35      1.0000 0.27485  0.22627  0.32962  Biso   1.000  C 
  C36      1.0000 0.11925  0.43795  0.62310  Biso   1.000  C 
  C37      1.0000 0.22335  0.76679  0.82530  Biso   1.000  C 
  C38      1.0000 0.22703  0.72600  0.15575  Biso   1.000  C 
  C39      1.0000 0.60115  0.88605  0.34833  Biso   1.000  C 
  C40      1.0000 0.30448  0.82525  0.99573  Biso   1.000  C 
  C41      1.0000 0.77526  0.31836  0.82872  Biso   1.000  C 
  C42      1.0000 0.27524  0.81839  0.82875  Biso   1.000  C 
  C43      1.0000 0.88328  0.43759  0.86097  Biso   1.000  C 
  C44      1.0000 0.38325  0.93763  0.86105  Biso   1.000  C 
  C45      1.0000 0.35922  0.16514  0.49837  Biso   1.000  C 
  C46      1.0000 0.30448  0.21936  0.49594  Biso   1.000  C 
  C47      1.0000 0.72337  0.26675  0.82528  Biso   1.000  C 
  C48      1.0000 0.60166  0.15843  0.84673  Biso   1.000  C 
  H1       1.0000 0.79292  0.69067  0.19962  Biso   1.000  H 
  H2       1.0000 0.70858  0.19045  0.28626  Biso   1.000  H 
  H3       1.0000 0.20852  0.69051  0.28632  Biso   1.000  H 
  H4       1.0000 0.79972  0.28122  0.29241  Biso   1.000  H 
  H5       1.0000 0.40072  0.85300  0.27074  Biso   1.000  H 
  H6       1.0000 0.36582  0.08997  0.22935  Biso   1.000  H 
  H7       1.0000 0.13570  0.58978  0.25656  Biso   1.000  H 
  H8       1.0000 0.36653  0.95457  0.72782  Biso   1.000  H 
  H9       1.0000 0.29305  0.19081  0.19937  Biso   1.000  H 
  H10      1.0000 0.60069  0.85283  0.21638  Biso   1.000  H 
  H11      1.0000 0.90074  0.35301  0.27072  Biso   1.000  H 
  H12      1.0000 0.70179  0.78147  0.19379  Biso   1.000  H 
  H13      1.0000 0.20192  0.28162  0.19355  Biso   1.000  H 
  H14      1.0000 0.86577  0.58992  0.22947  Biso   1.000  H 
  H15      1.0000 0.79376  0.35386  0.69815  Biso   1.000  H 
  H16      1.0000 0.10073  0.35287  0.21629  Biso   1.000  H 
  H17      1.0000 0.86656  0.45452  0.72772  Biso   1.000  H 
  H18      1.0000 0.13632  0.45508  0.75538  Biso   1.000  H 
  H19      1.0000 0.70908  0.85400  0.78607  Biso   1.000  H 
  H20      1.0000 0.20258  0.76317  0.69201  Biso   1.000  H 
  H21      1.0000 0.63574  0.08972  0.25650  Biso   1.000  H 
  H22      1.0000 0.30026  0.26323  0.79191  Biso   1.000  H 
  H23      1.0000 0.80028  0.76325  0.79190  Biso   1.000  H 
  H24      1.0000 0.40163  0.19186  0.76859  Biso   1.000  H 
  H25      1.0000 0.20908  0.35400  0.78607  Biso   1.000  H 
  H26      1.0000 0.63626  0.95500  0.75552  Biso   1.000  H 
  H27      1.0000 0.29374  0.85389  0.69818  Biso   1.000  H 
  H28      1.0000 0.10150  0.69157  0.71386  Biso   1.000  H 
  H29      1.0000 0.29966  0.78128  0.29250  Biso   1.000  H 
  H30      1.0000 0.70260  0.26314  0.69199  Biso   1.000  H 
  H31      1.0000 0.90162  0.69185  0.76860  Biso   1.000  H 
  H32      1.0000 0.60150  0.19156  0.71391  Biso   1.000  H 
  N1       1.0000 0.94598  0.60169  0.58448  Biso   1.000  N 
  N2       1.0000 0.43441  0.06940  0.41517  Biso   1.000  N 
  N3       1.0000 0.44558  0.94310  0.08557  Biso   1.000  N 
  N4       1.0000 0.56772  0.06920  0.06931  Biso   1.000  N 
  N5       1.0000 0.06783  0.47549  0.56930  Biso   1.000  N 
  N6       1.0000 0.93439  0.56938  0.41520  Biso   1.000  N 
  N7       1.0000 0.05660  0.60152  0.89901  Biso   1.000  N 
  N8       1.0000 0.55661  0.10149  0.89902  Biso   1.000  N 
  N9       1.0000 0.56779  0.97545  0.56938  Biso   1.000  N 
  N10      1.0000 0.43450  0.97528  0.91509  Biso   1.000  N 
  N11      1.0000 0.06769  0.56924  0.06933  Biso   1.000  N 
  N12      1.0000 0.93453  0.47526  0.91502  Biso   1.000  N 
  N13      1.0000 0.55625  0.94305  0.40015  Biso   1.000  N 
  N14      1.0000 0.44599  0.10170  0.58447  Biso   1.000  N 
  N15      1.0000 0.94560  0.44309  0.08553  Biso   1.000  N 
  N16      1.0000 0.05629  0.44308  0.40009  Biso   1.000  N 
  Zn1      1.0000 0.50091  0.99872  0.24254  Biso   1.000  Zn
  Zn2      1.0000 0.00126  0.54599  0.74219  Biso   1.000  Zn
  Zn3      1.0000 0.00091  0.49872  0.24255  Biso   1.000  Zn
  Zn4      1.0000 0.50125  0.04599  0.74223  Biso   1.000  Zn
