data_image0
_cell_length_a       24.9167
_cell_length_b       6.46594
_cell_length_c       7.17657
_cell_angle_alpha    90.0105
_cell_angle_beta     92.8125
_cell_angle_gamma    90.0346

_symmetry_space_group_name_H-M    "P 1"
_symmetry_int_tables_number       1

loop_
  _symmetry_equiv_pos_as_xyz
  'x, y, z'

loop_
  _atom_site_label
  _atom_site_occupancy
  _atom_site_fract_x
  _atom_site_fract_y
  _atom_site_fract_z
  _atom_site_thermal_displace_type
  _atom_site_B_iso_or_equiv
  _atom_site_type_symbol
  C1       1.0000 0.28377  0.63862  0.10127  Biso   1.000  C 
  C2       1.0000 0.80775  0.27023  0.97315  Biso   1.000  C 
  C3       1.0000 0.22804  0.39999  0.62142  Biso   1.000  C 
  C4       1.0000 0.09621  0.24807  0.37932  Biso   1.000  C 
  C5       1.0000 0.40537  0.29610  0.60495  Biso   1.000  C 
  C6       1.0000 0.80757  0.77501  0.47334  Biso   1.000  C 
  C7       1.0000 0.28328  0.40273  0.60171  Biso   1.000  C 
  C8       1.0000 0.36637  0.78205  0.96223  Biso   1.000  C 
  C9       1.0000 0.27355  0.14143  0.36312  Biso   1.000  C 
  C10      1.0000 0.10708  0.37418  0.66453  Biso   1.000  C 
  C11      1.0000 0.21900  0.90355  0.88299  Biso   1.000  C 
  C12      1.0000 0.22852  0.64132  0.12072  Biso   1.000  C 
  C13      1.0000 0.59646  0.74892  0.37915  Biso   1.000  C 
  C14      1.0000 0.30794  0.76842  0.97251  Biso   1.000  C 
  C15      1.0000 0.77407  0.40229  0.86376  Biso   1.000  C 
  C16      1.0000 0.27424  0.90078  0.86350  Biso   1.000  C 
  C17      1.0000 0.89501  0.37544  0.82091  Biso   1.000  C 
  C18      1.0000 0.39514  0.87463  0.82036  Biso   1.000  C 
  C19      1.0000 0.36580  0.26063  0.46188  Biso   1.000  C 
  C20      1.0000 0.30735  0.27342  0.47234  Biso   1.000  C 
  C21      1.0000 0.71883  0.40496  0.88301  Biso   1.000  C 
  C22      1.0000 0.59666  0.29753  0.87899  Biso   1.000  C 
  C23      1.0000 0.09684  0.79637  0.87937  Biso   1.000  C 
  C24      1.0000 0.90578  0.24938  0.10607  Biso   1.000  C 
  C25      1.0000 0.39476  0.16913  0.32002  Biso   1.000  C 
  C26      1.0000 0.89493  0.67089  0.32084  Biso   1.000  C 
  C27      1.0000 0.77383  0.64287  0.36401  Biso   1.000  C 
  C28      1.0000 0.71857  0.64012  0.38332  Biso   1.000  C 
  C29      1.0000 0.63601  0.78303  0.52253  Biso   1.000  C 
  C30      1.0000 0.21831  0.13873  0.38283  Biso   1.000  C 
  C31      1.0000 0.69444  0.76955  0.51241  Biso   1.000  C 
  C32      1.0000 0.72818  0.90153  0.62186  Biso   1.000  C 
  C33      1.0000 0.19484  0.77384  0.01184  Biso   1.000  C 
  C34      1.0000 0.78355  0.14057  0.10200  Biso   1.000  C 
  C35      1.0000 0.60734  0.17041  0.16382  Biso   1.000  C 
  C36      1.0000 0.10751  0.66953  0.16429  Biso   1.000  C 
  C37      1.0000 0.90558  0.79699  0.60610  Biso   1.000  C 
  C38      1.0000 0.86601  0.76218  0.46292  Biso   1.000  C 
  C39      1.0000 0.13642  0.76111  0.02233  Biso   1.000  C 
  C40      1.0000 0.60717  0.87521  0.66435  Biso   1.000  C 
  C41      1.0000 0.13582  0.28181  0.52256  Biso   1.000  C 
  C42      1.0000 0.69465  0.27535  0.01182  Biso   1.000  C 
  C43      1.0000 0.40600  0.74798  0.10530  Biso   1.000  C 
  C44      1.0000 0.19424  0.26808  0.51212  Biso   1.000  C 
  C45      1.0000 0.63622  0.26238  0.02201  Biso   1.000  C 
  C46      1.0000 0.72829  0.14301  0.12106  Biso   1.000  C 
  C47      1.0000 0.78343  0.90435  0.60250  Biso   1.000  C 
  C48      1.0000 0.86618  0.28355  0.96295  Biso   1.000  C 
  H1       1.0000 0.71098  0.00753  0.72077  Biso   1.000  H 
  H2       1.0000 0.40122  0.36043  0.74342  Biso   1.000  H 
  H3       1.0000 0.19439  0.00954  0.79741  Biso   1.000  H 
  H4       1.0000 0.62161  0.12046  0.30183  Biso   1.000  H 
  H5       1.0000 0.30798  0.50845  0.68751  Biso   1.000  H 
  H6       1.0000 0.80807  0.01016  0.68839  Biso   1.000  H 
  H7       1.0000 0.21091  0.50604  0.72047  Biso   1.000  H 
  H8       1.0000 0.69422  0.51069  0.79715  Biso   1.000  H 
  H9       1.0000 0.29147  0.00709  0.76486  Biso   1.000  H 
  H10      1.0000 0.10100  0.86046  0.74084  Biso   1.000  H 
  H11      1.0000 0.30840  0.53260  0.18683  Biso   1.000  H 
  H12      1.0000 0.90147  0.86070  0.74484  Biso   1.000  H 
  H13      1.0000 0.60080  0.36191  0.74055  Biso   1.000  H 
  H14      1.0000 0.12140  0.42344  0.80271  Biso   1.000  H 
  H15      1.0000 0.62141  0.92456  0.80260  Biso   1.000  H 
  H16      1.0000 0.88071  0.42448  0.68265  Biso   1.000  H 
  H17      1.0000 0.71103  0.03652  0.21952  Biso   1.000  H 
  H18      1.0000 0.79133  0.50839  0.76503  Biso   1.000  H 
  H19      1.0000 0.10022  0.18411  0.24064  Biso   1.000  H 
  H20      1.0000 0.79101  0.53674  0.26515  Biso   1.000  H 
  H21      1.0000 0.21130  0.53498  0.21937  Biso   1.000  H 
  H22      1.0000 0.40198  0.68378  0.24387  Biso   1.000  H 
  H23      1.0000 0.38055  0.11933  0.18187  Biso   1.000  H 
  H24      1.0000 0.12176  0.61956  0.30231  Biso   1.000  H 
  H25      1.0000 0.80818  0.03485  0.18787  Biso   1.000  H 
  H26      1.0000 0.29066  0.03544  0.26399  Biso   1.000  H 
  H27      1.0000 0.60054  0.68496  0.24050  Biso   1.000  H 
  H28      1.0000 0.90170  0.18555  0.24475  Biso   1.000  H 
  H29      1.0000 0.69391  0.53440  0.29740  Biso   1.000  H 
  H30      1.0000 0.19362  0.03308  0.29694  Biso   1.000  H 
  H31      1.0000 0.88070  0.62150  0.18262  Biso   1.000  H 
  H32      1.0000 0.38082  0.92400  0.68223  Biso   1.000  H 
  N1       1.0000 0.44691  0.90177  0.87806  Biso   1.000  N 
  N2       1.0000 0.04838  0.32375  0.42917  Biso   1.000  N 
  N3       1.0000 0.95370  0.32441  0.05612  Biso   1.000  N 
  N4       1.0000 0.45340  0.22219  0.55517  Biso   1.000  N 
  N5       1.0000 0.54856  0.82424  0.42877  Biso   1.000  N 
  N6       1.0000 0.94680  0.40220  0.87855  Biso   1.000  N 
  N7       1.0000 0.05566  0.64410  0.10673  Biso   1.000  N 
  N8       1.0000 0.55543  0.90213  0.60634  Biso   1.000  N 
  N9       1.0000 0.45387  0.82362  0.05548  Biso   1.000  N 
  N10      1.0000 0.04882  0.72229  0.92928  Biso   1.000  N 
  N11      1.0000 0.94675  0.64518  0.37844  Biso   1.000  N 
  N12      1.0000 0.05534  0.40161  0.60672  Biso   1.000  N 
  N13      1.0000 0.55553  0.14458  0.10614  Biso   1.000  N 
  N14      1.0000 0.44660  0.14390  0.37769  Biso   1.000  N 
  N15      1.0000 0.95358  0.72295  0.55610  Biso   1.000  N 
  N16      1.0000 0.54867  0.22296  0.92875  Biso   1.000  N 
  Zn1      1.0000 0.00114  0.48009  0.24270  Biso   1.000  Zn
  Zn2      1.0000 0.50117  0.97990  0.24208  Biso   1.000  Zn
  Zn3      1.0000 0.00113  0.56751  0.74252  Biso   1.000  Zn
  Zn4      1.0000 0.50112  0.06761  0.74194  Biso   1.000  Zn
