data_image0
_cell_length_a       19.9063
_cell_length_b       17.9035
_cell_length_c       7.00892
_cell_angle_alpha    89.8825
_cell_angle_beta     79.3977
_cell_angle_gamma    89.9966

_symmetry_space_group_name_H-M    "P 1"
_symmetry_int_tables_number       1

loop_
  _symmetry_equiv_pos_as_xyz
  'x, y, z'

loop_
  _atom_site_label
  _atom_site_occupancy
  _atom_site_fract_x
  _atom_site_fract_y
  _atom_site_fract_z
  _atom_site_thermal_displace_type
  _atom_site_B_iso_or_equiv
  _atom_site_type_symbol
  C1       1.0000 0.28040  0.77962  0.15649  Biso   1.000  C 
  C2       1.0000 0.77355  0.72802  0.33122  Biso   1.000  C 
  C3       1.0000 0.72152  0.77965  0.32883  Biso   1.000  C 
  C4       1.0000 0.64273  0.87972  0.48824  Biso   1.000  C 
  C5       1.0000 0.85947  0.66493  0.49662  Biso   1.000  C 
  C6       1.0000 0.69757  0.82544  0.49007  Biso   1.000  C 
  C7       1.0000 0.72867  0.81665  0.65365  Biso   1.000  C 
  C8       1.0000 0.19756  0.71917  0.99009  Biso   1.000  C 
  C9       1.0000 0.78042  0.27960  0.15645  Biso   1.000  C 
  C10      1.0000 0.61800  0.11027  0.12838  Biso   1.000  C 
  C11      1.0000 0.11797  0.61030  0.12845  Biso   1.000  C 
  C12      1.0000 0.90067  0.65477  0.63767  Biso   1.000  C 
  C13      1.0000 0.61830  0.93445  0.62792  Biso   1.000  C 
  C14      1.0000 0.14274  0.66490  0.98816  Biso   1.000  C 
  C15      1.0000 0.78072  0.76502  0.65604  Biso   1.000  C 
  C16      1.0000 0.72838  0.22798  0.15407  Biso   1.000  C 
  C17      1.0000 0.64276  0.16488  0.98810  Biso   1.000  C 
  C18      1.0000 0.85946  0.37965  0.99671  Biso   1.000  C 
  C19      1.0000 0.40030  0.88994  0.13850  Biso   1.000  C 
  C20      1.0000 0.69757  0.21916  0.99005  Biso   1.000  C 
  C21      1.0000 0.19761  0.32549  0.49005  Biso   1.000  C 
  C22      1.0000 0.14276  0.37975  0.48822  Biso   1.000  C 
  C23      1.0000 0.88391  0.61027  0.35678  Biso   1.000  C 
  C24      1.0000 0.22159  0.27974  0.32874  Biso   1.000  C 
  C25      1.0000 0.90031  0.38993  0.13850  Biso   1.000  C 
  C26      1.0000 0.10185  0.65472  0.84642  Biso   1.000  C 
  C27      1.0000 0.80463  0.32536  0.99484  Biso   1.000  C 
  C28      1.0000 0.22868  0.31667  0.65367  Biso   1.000  C 
  C29      1.0000 0.10153  0.38984  0.34720  Biso   1.000  C 
  C30      1.0000 0.40069  0.15479  0.63766  Biso   1.000  C 
  C31      1.0000 0.80465  0.71922  0.49480  Biso   1.000  C 
  C32      1.0000 0.38395  0.11032  0.35673  Biso   1.000  C 
  C33      1.0000 0.28073  0.26504  0.65604  Biso   1.000  C 
  C34      1.0000 0.35944  0.87967  0.99673  Biso   1.000  C 
  C35      1.0000 0.27363  0.22811  0.33113  Biso   1.000  C 
  C36      1.0000 0.11831  0.43447  0.62790  Biso   1.000  C 
  C37      1.0000 0.22179  0.76491  0.82844  Biso   1.000  C 
  C38      1.0000 0.22836  0.72800  0.15412  Biso   1.000  C 
  C39      1.0000 0.60151  0.88982  0.34722  Biso   1.000  C 
  C40      1.0000 0.30461  0.82538  0.99487  Biso   1.000  C 
  C41      1.0000 0.77383  0.31652  0.83083  Biso   1.000  C 
  C42      1.0000 0.27381  0.81654  0.83086  Biso   1.000  C 
  C43      1.0000 0.88426  0.43417  0.85619  Biso   1.000  C 
  C44      1.0000 0.38423  0.93420  0.85623  Biso   1.000  C 
  C45      1.0000 0.35950  0.16497  0.49658  Biso   1.000  C 
  C46      1.0000 0.30469  0.21927  0.49476  Biso   1.000  C 
  C47      1.0000 0.72180  0.26490  0.82840  Biso   1.000  C 
  C48      1.0000 0.60186  0.15471  0.84639  Biso   1.000  C 
  H1       1.0000 0.79058  0.69391  0.20255  Biso   1.000  H 
  H2       1.0000 0.71114  0.19392  0.28308  Biso   1.000  H 
  H3       1.0000 0.21112  0.69393  0.28313  Biso   1.000  H 
  H4       1.0000 0.80246  0.28461  0.28736  Biso   1.000  H 
  H5       1.0000 0.39984  0.86044  0.27432  Biso   1.000  H 
  H6       1.0000 0.36747  0.09675  0.22153  Biso   1.000  H 
  H7       1.0000 0.13413  0.59675  0.26422  Biso   1.000  H 
  H8       1.0000 0.36809  0.94765  0.72034  Biso   1.000  H 
  H9       1.0000 0.29069  0.19404  0.20241  Biso   1.000  H 
  H10      1.0000 0.60161  0.86008  0.21225  Biso   1.000  H 
  H11      1.0000 0.89983  0.36045  0.27435  Biso   1.000  H 
  H12      1.0000 0.69927  0.78463  0.19825  Biso   1.000  H 
  H13      1.0000 0.19937  0.28475  0.19811  Biso   1.000  H 
  H14      1.0000 0.86743  0.59668  0.22159  Biso   1.000  H 
  H15      1.0000 0.79110  0.35057  0.70184  Biso   1.000  H 
  H16      1.0000 0.10162  0.36010  0.21225  Biso   1.000  H 
  H17      1.0000 0.86813  0.44761  0.72029  Biso   1.000  H 
  H18      1.0000 0.13484  0.44813  0.76296  Biso   1.000  H 
  H19      1.0000 0.71164  0.85075  0.78233  Biso   1.000  H 
  H20      1.0000 0.19977  0.75989  0.69751  Biso   1.000  H 
  H21      1.0000 0.63417  0.09672  0.26413  Biso   1.000  H 
  H22      1.0000 0.30295  0.26003  0.78667  Biso   1.000  H 
  H23      1.0000 0.80297  0.76003  0.78663  Biso   1.000  H 
  H24      1.0000 0.40057  0.18443  0.77278  Biso   1.000  H 
  H25      1.0000 0.21161  0.35074  0.78238  Biso   1.000  H 
  H26      1.0000 0.63482  0.94811  0.76299  Biso   1.000  H 
  H27      1.0000 0.29109  0.85058  0.70186  Biso   1.000  H 
  H28      1.0000 0.10227  0.68433  0.71081  Biso   1.000  H 
  H29      1.0000 0.30245  0.78463  0.28738  Biso   1.000  H 
  H30      1.0000 0.69979  0.25987  0.69747  Biso   1.000  H 
  H31      1.0000 0.90055  0.68442  0.77278  Biso   1.000  H 
  H32      1.0000 0.60227  0.18434  0.71081  Biso   1.000  H 
  N1       1.0000 0.94578  0.59903  0.58445  Biso   1.000  N 
  N2       1.0000 0.43514  0.07126  0.41109  Biso   1.000  N 
  N3       1.0000 0.44554  0.94563  0.08507  Biso   1.000  N 
  N4       1.0000 0.56691  0.07124  0.07366  Biso   1.000  N 
  N5       1.0000 0.06710  0.47348  0.57348  Biso   1.000  N 
  N6       1.0000 0.93512  0.57123  0.41114  Biso   1.000  N 
  N7       1.0000 0.05663  0.59900  0.89966  Biso   1.000  N 
  N8       1.0000 0.55664  0.09899  0.89964  Biso   1.000  N 
  N9       1.0000 0.56709  0.97347  0.57349  Biso   1.000  N 
  N10      1.0000 0.43531  0.97327  0.91089  Biso   1.000  N 
  N11      1.0000 0.06689  0.57126  0.07372  Biso   1.000  N 
  N12      1.0000 0.93533  0.47326  0.91087  Biso   1.000  N 
  N13      1.0000 0.55641  0.94558  0.40027  Biso   1.000  N 
  N14      1.0000 0.44580  0.09905  0.58443  Biso   1.000  N 
  N15      1.0000 0.94554  0.44563  0.08508  Biso   1.000  N 
  N16      1.0000 0.05642  0.44559  0.40027  Biso   1.000  N 
  Zn1      1.0000 0.50091  0.00270  0.24254  Biso   1.000  Zn
  Zn2      1.0000 0.00123  0.54193  0.74215  Biso   1.000  Zn
  Zn3      1.0000 0.00090  0.50269  0.24256  Biso   1.000  Zn
  Zn4      1.0000 0.50123  0.04194  0.74216  Biso   1.000  Zn
