data_image0
_cell_length_a       22.7003
_cell_length_b       14.0771
_cell_length_c       6.6887
_cell_angle_alpha    89.9994
_cell_angle_beta     79.9373
_cell_angle_gamma    89.9992

_symmetry_space_group_name_H-M    "P 1"
_symmetry_int_tables_number       1

loop_
  _symmetry_equiv_pos_as_xyz
  'x, y, z'

loop_
  _atom_site_label
  _atom_site_occupancy
  _atom_site_fract_x
  _atom_site_fract_y
  _atom_site_fract_z
  _atom_site_thermal_displace_type
  _atom_site_B_iso_or_equiv
  _atom_site_type_symbol
  C1       1.0000 0.27881  0.76795  0.16185  Biso   1.000  C 
  C2       1.0000 0.77720  0.72058  0.32256  Biso   1.000  C 
  C3       1.0000 0.72334  0.76768  0.32293  Biso   1.000  C 
  C4       1.0000 0.63955  0.87089  0.49311  Biso   1.000  C 
  C5       1.0000 0.90328  0.68217  0.62705  Biso   1.000  C 
  C6       1.0000 0.69594  0.82061  0.49238  Biso   1.000  C 
  C7       1.0000 0.90324  0.36231  0.12729  Biso   1.000  C 
  C8       1.0000 0.72523  0.82408  0.66123  Biso   1.000  C 
  C9       1.0000 0.19575  0.72420  0.99309  Biso   1.000  C 
  C10      1.0000 0.77890  0.26786  0.16169  Biso   1.000  C 
  C11      1.0000 0.61319  0.10370  0.13148  Biso   1.000  C 
  C12      1.0000 0.11319  0.60374  0.13113  Biso   1.000  C 
  C13      1.0000 0.13944  0.67375  0.99351  Biso   1.000  C 
  C14      1.0000 0.61325  0.94079  0.63093  Biso   1.000  C 
  C15      1.0000 0.19596  0.32065  0.49230  Biso   1.000  C 
  C16      1.0000 0.69578  0.22410  0.99323  Biso   1.000  C 
  C17      1.0000 0.40315  0.86235  0.12770  Biso   1.000  C 
  C18      1.0000 0.13958  0.37094  0.49290  Biso   1.000  C 
  C19      1.0000 0.63946  0.17367  0.99380  Biso   1.000  C 
  C20      1.0000 0.72506  0.22075  0.16212  Biso   1.000  C 
  C21      1.0000 0.86269  0.37104  0.99150  Biso   1.000  C 
  C22      1.0000 0.77908  0.77699  0.66085  Biso   1.000  C 
  C23      1.0000 0.88900  0.60349  0.35362  Biso   1.000  C 
  C24      1.0000 0.86276  0.67355  0.49111  Biso   1.000  C 
  C25      1.0000 0.40326  0.18216  0.62743  Biso   1.000  C 
  C26      1.0000 0.09894  0.68228  0.85746  Biso   1.000  C 
  C27      1.0000 0.80631  0.32075  0.99219  Biso   1.000  C 
  C28      1.0000 0.22521  0.32412  0.66124  Biso   1.000  C 
  C29      1.0000 0.09905  0.36232  0.35701  Biso   1.000  C 
  C30      1.0000 0.22497  0.72085  0.16209  Biso   1.000  C 
  C31      1.0000 0.80645  0.72398  0.49150  Biso   1.000  C 
  C32      1.0000 0.22340  0.26769  0.32291  Biso   1.000  C 
  C33      1.0000 0.38900  0.10349  0.35396  Biso   1.000  C 
  C34      1.0000 0.27905  0.27702  0.66101  Biso   1.000  C 
  C35      1.0000 0.36263  0.87110  0.99182  Biso   1.000  C 
  C36      1.0000 0.27724  0.22059  0.32270  Biso   1.000  C 
  C37      1.0000 0.11326  0.44081  0.63075  Biso   1.000  C 
  C38      1.0000 0.22316  0.77717  0.82371  Biso   1.000  C 
  C39      1.0000 0.30626  0.82083  0.99237  Biso   1.000  C 
  C40      1.0000 0.59899  0.86225  0.35731  Biso   1.000  C 
  C41      1.0000 0.72316  0.27707  0.82380  Biso   1.000  C 
  C42      1.0000 0.30645  0.22399  0.49173  Biso   1.000  C 
  C43      1.0000 0.36275  0.17355  0.49145  Biso   1.000  C 
  C44      1.0000 0.59896  0.18220  0.85776  Biso   1.000  C 
  C45      1.0000 0.88897  0.44101  0.85386  Biso   1.000  C 
  C46      1.0000 0.27701  0.82425  0.82341  Biso   1.000  C 
  C47      1.0000 0.38896  0.94102  0.85413  Biso   1.000  C 
  C48      1.0000 0.77701  0.32417  0.82335  Biso   1.000  C 
  H1       1.0000 0.20498  0.68112  0.29709  Biso   1.000  H 
  H2       1.0000 0.10075  0.31681  0.22502  Biso   1.000  H 
  H3       1.0000 0.79973  0.26425  0.29669  Biso   1.000  H 
  H4       1.0000 0.12869  0.57344  0.26202  Biso   1.000  H 
  H5       1.0000 0.40143  0.81677  0.25960  Biso   1.000  H 
  H6       1.0000 0.37347  0.07311  0.22321  Biso   1.000  H 
  H7       1.0000 0.70510  0.18101  0.29714  Biso   1.000  H 
  H8       1.0000 0.20258  0.26402  0.18787  Biso   1.000  H 
  H9       1.0000 0.79696  0.36392  0.68832  Biso   1.000  H 
  H10      1.0000 0.29722  0.18081  0.18778  Biso   1.000  H 
  H11      1.0000 0.60066  0.81671  0.22538  Biso   1.000  H 
  H12      1.0000 0.90155  0.31668  0.25911  Biso   1.000  H 
  H13      1.0000 0.37347  0.97143  0.72334  Biso   1.000  H 
  H14      1.0000 0.70250  0.76402  0.18796  Biso   1.000  H 
  H15      1.0000 0.87349  0.57309  0.22288  Biso   1.000  H 
  H16      1.0000 0.79714  0.68080  0.18760  Biso   1.000  H 
  H17      1.0000 0.70528  0.86384  0.79620  Biso   1.000  H 
  H18      1.0000 0.90160  0.72778  0.75889  Biso   1.000  H 
  H19      1.0000 0.20234  0.78083  0.68867  Biso   1.000  H 
  H20      1.0000 0.62868  0.07342  0.26241  Biso   1.000  H 
  H21      1.0000 0.20523  0.36389  0.79617  Biso   1.000  H 
  H22      1.0000 0.29987  0.28070  0.79605  Biso   1.000  H 
  H23      1.0000 0.79992  0.78064  0.79583  Biso   1.000  H 
  H24      1.0000 0.87345  0.47142  0.72312  Biso   1.000  H 
  H25      1.0000 0.40158  0.22776  0.75927  Biso   1.000  H 
  H26      1.0000 0.12876  0.47109  0.76165  Biso   1.000  H 
  H27      1.0000 0.62877  0.97110  0.76178  Biso   1.000  H 
  H28      1.0000 0.29699  0.86399  0.68844  Biso   1.000  H 
  H29      1.0000 0.10061  0.72788  0.72562  Biso   1.000  H 
  H30      1.0000 0.60064  0.22779  0.72591  Biso   1.000  H 
  H31      1.0000 0.29960  0.76433  0.29692  Biso   1.000  H 
  H32      1.0000 0.70231  0.28072  0.68884  Biso   1.000  H 
  N1       1.0000 0.44980  0.92195  0.07328  Biso   1.000  N 
  N2       1.0000 0.56161  0.07338  0.08009  Biso   1.000  N 
  N3       1.0000 0.55240  0.12241  0.91201  Biso   1.000  N 
  N4       1.0000 0.06161  0.47098  0.57961  Biso   1.000  N 
  N5       1.0000 0.94060  0.57325  0.40498  Biso   1.000  N 
  N6       1.0000 0.05240  0.62246  0.91164  Biso   1.000  N 
  N7       1.0000 0.94984  0.62239  0.57286  Biso   1.000  N 
  N8       1.0000 0.44059  0.07324  0.40534  Biso   1.000  N 
  N9       1.0000 0.05242  0.42195  0.41153  Biso   1.000  N 
  N10      1.0000 0.94986  0.42196  0.07290  Biso   1.000  N 
  N11      1.0000 0.44061  0.97108  0.90533  Biso   1.000  N 
  N12      1.0000 0.06162  0.57341  0.07969  Biso   1.000  N 
  N13      1.0000 0.94062  0.47112  0.90503  Biso   1.000  N 
  N14      1.0000 0.55237  0.92189  0.41186  Biso   1.000  N 
  N15      1.0000 0.56160  0.97096  0.57986  Biso   1.000  N 
  N16      1.0000 0.44982  0.12237  0.57324  Biso   1.000  N 
  Zn1      1.0000 0.00113  0.48614  0.24225  Biso   1.000  Zn
  Zn2      1.0000 0.50109  0.98608  0.24257  Biso   1.000  Zn
  Zn3      1.0000 0.00112  0.55817  0.74225  Biso   1.000  Zn
  Zn4      1.0000 0.50113  0.05820  0.74260  Biso   1.000  Zn
