data_image0
_cell_length_a       24.8561
_cell_length_b       7.94459
_cell_length_c       7.10599
_cell_angle_alpha    89.4748
_cell_angle_beta     90.501
_cell_angle_gamma    90.0138

_symmetry_space_group_name_H-M    "P 1"
_symmetry_int_tables_number       1

loop_
  _symmetry_equiv_pos_as_xyz
  'x, y, z'

loop_
  _atom_site_label
  _atom_site_occupancy
  _atom_site_fract_x
  _atom_site_fract_y
  _atom_site_fract_z
  _atom_site_thermal_displace_type
  _atom_site_B_iso_or_equiv
  _atom_site_type_symbol
  C1       1.0000 0.28443  0.67865  0.11212  Biso   1.000  C 
  C2       1.0000 0.77309  0.66485  0.36049  Biso   1.000  C 
  C3       1.0000 0.71753  0.68058  0.37405  Biso   1.000  C 
  C4       1.0000 0.63611  0.81640  0.51362  Biso   1.000  C 
  C5       1.0000 0.86626  0.72853  0.47114  Biso   1.000  C 
  C6       1.0000 0.69427  0.78869  0.50639  Biso   1.000  C 
  C7       1.0000 0.72929  0.88002  0.62464  Biso   1.000  C 
  C8       1.0000 0.19411  0.75625  0.00469  Biso   1.000  C 
  C9       1.0000 0.78440  0.17885  0.11217  Biso   1.000  C 
  C10      1.0000 0.60648  0.15176  0.15680  Biso   1.000  C 
  C11      1.0000 0.10651  0.65146  0.15638  Biso   1.000  C 
  C12      1.0000 0.90488  0.74796  0.61508  Biso   1.000  C 
  C13      1.0000 0.60694  0.89390  0.65781  Biso   1.000  C 
  C14      1.0000 0.13592  0.72858  0.01095  Biso   1.000  C 
  C15      1.0000 0.78486  0.86429  0.61108  Biso   1.000  C 
  C16      1.0000 0.72879  0.16330  0.12433  Biso   1.000  C 
  C17      1.0000 0.63589  0.22891  0.01135  Biso   1.000  C 
  C18      1.0000 0.86618  0.31600  0.97338  Biso   1.000  C 
  C19      1.0000 0.40453  0.79680  0.11897  Biso   1.000  C 
  C20      1.0000 0.69408  0.25654  0.00497  Biso   1.000  C 
  C21      1.0000 0.19422  0.28838  0.50641  Biso   1.000  C 
  C22      1.0000 0.13606  0.31607  0.51346  Biso   1.000  C 
  C23      1.0000 0.89532  0.65070  0.32688  Biso   1.000  C 
  C24      1.0000 0.21752  0.18030  0.37412  Biso   1.000  C 
  C25      1.0000 0.90451  0.29677  0.11868  Biso   1.000  C 
  C26      1.0000 0.09762  0.74752  0.86546  Biso   1.000  C 
  C27      1.0000 0.80798  0.28862  0.98000  Biso   1.000  C 
  C28      1.0000 0.22921  0.37969  0.62480  Biso   1.000  C 
  C29      1.0000 0.09755  0.29676  0.36913  Biso   1.000  C 
  C30      1.0000 0.40484  0.24794  0.61550  Biso   1.000  C 
  C31      1.0000 0.80811  0.75626  0.47864  Biso   1.000  C 
  C32      1.0000 0.39531  0.15059  0.32732  Biso   1.000  C 
  C33      1.0000 0.28478  0.36402  0.61139  Biso   1.000  C 
  C34      1.0000 0.36622  0.81591  0.97357  Biso   1.000  C 
  C35      1.0000 0.27309  0.16463  0.36071  Biso   1.000  C 
  C36      1.0000 0.10686  0.39347  0.65765  Biso   1.000  C 
  C37      1.0000 0.21772  0.86616  0.87272  Biso   1.000  C 
  C38      1.0000 0.22881  0.66304  0.12412  Biso   1.000  C 
  C39      1.0000 0.59756  0.79694  0.36943  Biso   1.000  C 
  C40      1.0000 0.30803  0.78847  0.98004  Biso   1.000  C 
  C41      1.0000 0.77327  0.38198  0.86075  Biso   1.000  C 
  C42      1.0000 0.27333  0.88179  0.86072  Biso   1.000  C 
  C43      1.0000 0.89558  0.39301  0.82784  Biso   1.000  C 
  C44      1.0000 0.39563  0.89292  0.82807  Biso   1.000  C 
  C45      1.0000 0.36623  0.22840  0.47156  Biso   1.000  C 
  C46      1.0000 0.30808  0.25605  0.47898  Biso   1.000  C 
  C47      1.0000 0.71766  0.36641  0.87292  Biso   1.000  C 
  C48      1.0000 0.59758  0.24782  0.86589  Biso   1.000  C 
  H1       1.0000 0.78943  0.57663  0.25905  Biso   1.000  H 
  H2       1.0000 0.71215  0.07372  0.22553  Biso   1.000  H 
  H3       1.0000 0.21217  0.57342  0.22526  Biso   1.000  H 
  H4       1.0000 0.80981  0.10266  0.20562  Biso   1.000  H 
  H5       1.0000 0.39963  0.74734  0.26083  Biso   1.000  H 
  H6       1.0000 0.38182  0.11340  0.18809  Biso   1.000  H 
  H7       1.0000 0.11970  0.61503  0.29696  Biso   1.000  H 
  H8       1.0000 0.38243  0.92947  0.68754  Biso   1.000  H 
  H9       1.0000 0.28946  0.07644  0.25930  Biso   1.000  H 
  H10      1.0000 0.60223  0.74716  0.22864  Biso   1.000  H 
  H11      1.0000 0.89962  0.24727  0.26053  Biso   1.000  H 
  H12      1.0000 0.69189  0.60590  0.28138  Biso   1.000  H 
  H13      1.0000 0.19190  0.10562  0.28138  Biso   1.000  H 
  H14      1.0000 0.88183  0.61355  0.18764  Biso   1.000  H 
  H15      1.0000 0.78990  0.47159  0.75957  Biso   1.000  H 
  H16      1.0000 0.10225  0.24709  0.22829  Biso   1.000  H 
  H17      1.0000 0.88234  0.42964  0.68737  Biso   1.000  H 
  H18      1.0000 0.12025  0.43039  0.79707  Biso   1.000  H 
  H19      1.0000 0.71296  0.96813  0.72621  Biso   1.000  H 
  H20      1.0000 0.19232  0.94235  0.77923  Biso   1.000  H 
  H21      1.0000 0.61968  0.11531  0.29736  Biso   1.000  H 
  H22      1.0000 0.31042  0.43859  0.70421  Biso   1.000  H 
  H23      1.0000 0.81052  0.93887  0.70379  Biso   1.000  H 
  H24      1.0000 0.40027  0.29797  0.75622  Biso   1.000  H 
  H25      1.0000 0.21285  0.46775  0.72637  Biso   1.000  H 
  H26      1.0000 0.62037  0.93097  0.79715  Biso   1.000  H 
  H27      1.0000 0.28997  0.97143  0.75959  Biso   1.000  H 
  H28      1.0000 0.10253  0.79704  0.72363  Biso   1.000  H 
  H29      1.0000 0.30982  0.60247  0.20563  Biso   1.000  H 
  H30      1.0000 0.69225  0.44262  0.77951  Biso   1.000  H 
  H31      1.0000 0.90031  0.79796  0.75582  Biso   1.000  H 
  H32      1.0000 0.60248  0.29734  0.72405  Biso   1.000  H 
  N1       1.0000 0.95251  0.68198  0.56232  Biso   1.000  N 
  N2       1.0000 0.44635  0.12167  0.38383  Biso   1.000  N 
  N3       1.0000 0.45233  0.86228  0.06570  Biso   1.000  N 
  N4       1.0000 0.55555  0.12260  0.09971  Biso   1.000  N 
  N5       1.0000 0.05583  0.42234  0.60079  Biso   1.000  N 
  N6       1.0000 0.94636  0.62167  0.38339  Biso   1.000  N 
  N7       1.0000 0.04985  0.68186  0.91864  Biso   1.000  N 
  N8       1.0000 0.54981  0.18212  0.91907  Biso   1.000  N 
  N9       1.0000 0.55590  0.92270  0.60109  Biso   1.000  N 
  N10      1.0000 0.44659  0.92184  0.88506  Biso   1.000  N 
  N11      1.0000 0.05557  0.62233  0.09928  Biso   1.000  N 
  N12      1.0000 0.94655  0.42183  0.88475  Biso   1.000  N 
  N13      1.0000 0.54986  0.86260  0.42200  Biso   1.000  N 
  N14      1.0000 0.45249  0.18204  0.56274  Biso   1.000  N 
  N15      1.0000 0.95230  0.36220  0.06534  Biso   1.000  N 
  N16      1.0000 0.04984  0.36240  0.42162  Biso   1.000  N 
  Zn1      1.0000 0.50096  0.98663  0.24270  Biso   1.000  Zn
  Zn2      1.0000 0.00118  0.55754  0.74167  Biso   1.000  Zn
  Zn3      1.0000 0.00095  0.48655  0.24232  Biso   1.000  Zn
  Zn4      1.0000 0.50119  0.05768  0.74205  Biso   1.000  Zn
