data_image0
_cell_length_a       23.5866
_cell_length_b       12.3235
_cell_length_c       6.68672
_cell_angle_alpha    90.0474
_cell_angle_beta     82.1947
_cell_angle_gamma    90.0134

_symmetry_space_group_name_H-M    "P 1"
_symmetry_int_tables_number       1

loop_
  _symmetry_equiv_pos_as_xyz
  'x, y, z'

loop_
  _atom_site_label
  _atom_site_occupancy
  _atom_site_fract_x
  _atom_site_fract_y
  _atom_site_fract_z
  _atom_site_thermal_displace_type
  _atom_site_B_iso_or_equiv
  _atom_site_type_symbol
  C1       1.0000 0.27922  0.76155  0.16092  Biso   1.000  C 
  C2       1.0000 0.80684  0.31615  0.99013  Biso   1.000  C 
  C3       1.0000 0.22540  0.32700  0.66152  Biso   1.000  C 
  C4       1.0000 0.09831  0.34671  0.36219  Biso   1.000  C 
  C5       1.0000 0.22223  0.78361  0.82547  Biso   1.000  C 
  C6       1.0000 0.80756  0.72902  0.48867  Biso   1.000  C 
  C7       1.0000 0.22307  0.26176  0.32349  Biso   1.000  C 
  C8       1.0000 0.39121  0.10466  0.34906  Biso   1.000  C 
  C9       1.0000 0.28002  0.28422  0.65901  Biso   1.000  C 
  C10      1.0000 0.36390  0.86290  0.98734  Biso   1.000  C 
  C11      1.0000 0.27771  0.21903  0.32094  Biso   1.000  C 
  C12      1.0000 0.11133  0.43958  0.63513  Biso   1.000  C 
  C13      1.0000 0.59832  0.84673  0.36221  Biso   1.000  C 
  C14      1.0000 0.30685  0.81610  0.99008  Biso   1.000  C 
  C15      1.0000 0.39096  0.93907  0.84935  Biso   1.000  C 
  C16      1.0000 0.27695  0.82606  0.82255  Biso   1.000  C 
  C17      1.0000 0.89096  0.43909  0.84935  Biso   1.000  C 
  C18      1.0000 0.77693  0.32613  0.82260  Biso   1.000  C 
  C19      1.0000 0.36441  0.18144  0.48661  Biso   1.000  C 
  C20      1.0000 0.30756  0.22901  0.48867  Biso   1.000  C 
  C21      1.0000 0.59762  0.19773  0.86391  Biso   1.000  C 
  C22      1.0000 0.72221  0.28369  0.82553  Biso   1.000  C 
  C23      1.0000 0.09764  0.69770  0.86388  Biso   1.000  C 
  C24      1.0000 0.22452  0.71907  0.16380  Biso   1.000  C 
  C25      1.0000 0.86441  0.68145  0.48659  Biso   1.000  C 
  C26      1.0000 0.89121  0.60467  0.34907  Biso   1.000  C 
  C27      1.0000 0.77771  0.71905  0.32094  Biso   1.000  C 
  C28      1.0000 0.72307  0.76179  0.32351  Biso   1.000  C 
  C29      1.0000 0.63844  0.86351  0.49685  Biso   1.000  C 
  C30      1.0000 0.90447  0.69762  0.62170  Biso   1.000  C 
  C31      1.0000 0.69549  0.81676  0.49405  Biso   1.000  C 
  C32      1.0000 0.40447  0.19761  0.62171  Biso   1.000  C 
  C33      1.0000 0.90398  0.34631  0.12211  Biso   1.000  C 
  C34      1.0000 0.72540  0.82702  0.66155  Biso   1.000  C 
  C35      1.0000 0.19464  0.72889  0.99616  Biso   1.000  C 
  C36      1.0000 0.77921  0.26160  0.16096  Biso   1.000  C 
  C37      1.0000 0.61088  0.10502  0.13648  Biso   1.000  C 
  C38      1.0000 0.11089  0.60499  0.13645  Biso   1.000  C 
  C39      1.0000 0.13773  0.68156  0.99875  Biso   1.000  C 
  C40      1.0000 0.61133  0.93960  0.63515  Biso   1.000  C 
  C41      1.0000 0.19548  0.31674  0.49403  Biso   1.000  C 
  C42      1.0000 0.69462  0.22895  0.99622  Biso   1.000  C 
  C43      1.0000 0.40399  0.84629  0.12208  Biso   1.000  C 
  C44      1.0000 0.13843  0.36348  0.49683  Biso   1.000  C 
  C45      1.0000 0.63771  0.18161  0.99879  Biso   1.000  C 
  C46      1.0000 0.72450  0.21913  0.16384  Biso   1.000  C 
  C47      1.0000 0.86389  0.36293  0.98737  Biso   1.000  C 
  C48      1.0000 0.78002  0.78424  0.65902  Biso   1.000  C 
  H1       1.0000 0.62610  0.06771  0.26632  Biso   1.000  H 
  H2       1.0000 0.70537  0.86853  0.79718  Biso   1.000  H 
  H3       1.0000 0.20536  0.36852  0.79715  Biso   1.000  H 
  H4       1.0000 0.40227  0.24984  0.75344  Biso   1.000  H 
  H5       1.0000 0.30136  0.29276  0.79311  Biso   1.000  H 
  H6       1.0000 0.80137  0.79277  0.79313  Biso   1.000  H 
  H7       1.0000 0.87582  0.47650  0.71946  Biso   1.000  H 
  H8       1.0000 0.70083  0.29209  0.69150  Biso   1.000  H 
  H9       1.0000 0.12645  0.47710  0.76509  Biso   1.000  H 
  H10      1.0000 0.62645  0.97710  0.76511  Biso   1.000  H 
  H11      1.0000 0.29705  0.86717  0.68665  Biso   1.000  H 
  H12      1.0000 0.09984  0.74976  0.73209  Biso   1.000  H 
  H13      1.0000 0.59982  0.24980  0.73213  Biso   1.000  H 
  H14      1.0000 0.30059  0.75321  0.29498  Biso   1.000  H 
  H15      1.0000 0.90227  0.74986  0.75344  Biso   1.000  H 
  H16      1.0000 0.20085  0.79201  0.69143  Biso   1.000  H 
  H17      1.0000 0.79774  0.67759  0.18521  Biso   1.000  H 
  H18      1.0000 0.70171  0.75328  0.18942  Biso   1.000  H 
  H19      1.0000 0.20442  0.67795  0.29966  Biso   1.000  H 
  H20      1.0000 0.80058  0.25326  0.29500  Biso   1.000  H 
  H21      1.0000 0.12610  0.56767  0.26630  Biso   1.000  H 
  H22      1.0000 0.40164  0.79424  0.25394  Biso   1.000  H 
  H23      1.0000 0.37598  0.06731  0.21915  Biso   1.000  H 
  H24      1.0000 0.10066  0.29472  0.23008  Biso   1.000  H 
  H25      1.0000 0.70441  0.17800  0.29970  Biso   1.000  H 
  H26      1.0000 0.87598  0.56732  0.21917  Biso   1.000  H 
  H27      1.0000 0.79702  0.36725  0.68670  Biso   1.000  H 
  H28      1.0000 0.29774  0.17757  0.18521  Biso   1.000  H 
  H29      1.0000 0.60067  0.79472  0.23010  Biso   1.000  H 
  H30      1.0000 0.20171  0.25325  0.18940  Biso   1.000  H 
  H31      1.0000 0.90163  0.29427  0.25397  Biso   1.000  H 
  H32      1.0000 0.37583  0.97650  0.71945  Biso   1.000  H 
  N1       1.0000 0.55971  0.96594  0.58512  Biso   1.000  N 
  N2       1.0000 0.55126  0.90796  0.41730  Biso   1.000  N 
  N3       1.0000 0.05126  0.40795  0.41730  Biso   1.000  N 
  N4       1.0000 0.94253  0.46565  0.89966  Biso   1.000  N 
  N5       1.0000 0.05944  0.57779  0.08585  Biso   1.000  N 
  N6       1.0000 0.44253  0.96565  0.89966  Biso   1.000  N 
  N7       1.0000 0.95098  0.40773  0.06737  Biso   1.000  N 
  N8       1.0000 0.45121  0.13539  0.56755  Biso   1.000  N 
  N9       1.0000 0.44260  0.07737  0.39995  Biso   1.000  N 
  N10      1.0000 0.45099  0.90772  0.06737  Biso   1.000  N 
  N11      1.0000 0.95120  0.63541  0.56755  Biso   1.000  N 
  N12      1.0000 0.05084  0.63568  0.91829  Biso   1.000  N 
  N13      1.0000 0.94261  0.57738  0.39994  Biso   1.000  N 
  N14      1.0000 0.05971  0.46593  0.58512  Biso   1.000  N 
  N15      1.0000 0.55083  0.13570  0.91831  Biso   1.000  N 
  N16      1.0000 0.55943  0.07781  0.08587  Biso   1.000  N 
  Zn1      1.0000 0.50107  0.97990  0.24248  Biso   1.000  Zn
  Zn2      1.0000 0.00111  0.56284  0.74279  Biso   1.000  Zn
  Zn3      1.0000 0.00107  0.47988  0.24244  Biso   1.000  Zn
  Zn4      1.0000 0.50111  0.06283  0.74278  Biso   1.000  Zn
