data_image0
_cell_length_a       21.9506
_cell_length_b       15.3096
_cell_length_c       6.64433
_cell_angle_alpha    90.0047
_cell_angle_beta     77.5806
_cell_angle_gamma    89.9991

_symmetry_space_group_name_H-M    "P 1"
_symmetry_int_tables_number       1

loop_
  _symmetry_equiv_pos_as_xyz
  'x, y, z'

loop_
  _atom_site_label
  _atom_site_occupancy
  _atom_site_fract_x
  _atom_site_fract_y
  _atom_site_fract_z
  _atom_site_thermal_displace_type
  _atom_site_B_iso_or_equiv
  _atom_site_type_symbol
  C1       1.0000 0.27792  0.77022  0.16371  Biso   1.000  C 
  C2       1.0000 0.77774  0.72230  0.32209  Biso   1.000  C 
  C3       1.0000 0.72443  0.77113  0.32071  Biso   1.000  C 
  C4       1.0000 0.64067  0.87464  0.48972  Biso   1.000  C 
  C5       1.0000 0.90273  0.67559  0.63039  Biso   1.000  C 
  C6       1.0000 0.69657  0.82293  0.49064  Biso   1.000  C 
  C7       1.0000 0.90266  0.36889  0.13052  Biso   1.000  C 
  C8       1.0000 0.72487  0.82348  0.66176  Biso   1.000  C 
  C9       1.0000 0.19635  0.72185  0.99115  Biso   1.000  C 
  C10      1.0000 0.77797  0.27013  0.16357  Biso   1.000  C 
  C11      1.0000 0.61533  0.10216  0.12577  Biso   1.000  C 
  C12      1.0000 0.11530  0.60224  0.12590  Biso   1.000  C 
  C13      1.0000 0.14051  0.67001  0.99014  Biso   1.000  C 
  C14      1.0000 0.61539  0.94234  0.62560  Biso   1.000  C 
  C15      1.0000 0.19662  0.32299  0.49063  Biso   1.000  C 
  C16      1.0000 0.69641  0.22174  0.99098  Biso   1.000  C 
  C17      1.0000 0.40260  0.86898  0.13060  Biso   1.000  C 
  C18      1.0000 0.14072  0.37472  0.48971  Biso   1.000  C 
  C19      1.0000 0.64055  0.16992  0.99001  Biso   1.000  C 
  C20      1.0000 0.72465  0.22134  0.16225  Biso   1.000  C 
  C21      1.0000 0.86159  0.37389  0.99485  Biso   1.000  C 
  C22      1.0000 0.77819  0.77467  0.66315  Biso   1.000  C 
  C23      1.0000 0.88684  0.60282  0.35896  Biso   1.000  C 
  C24      1.0000 0.86170  0.67067  0.49462  Biso   1.000  C 
  C25      1.0000 0.40276  0.17561  0.63034  Biso   1.000  C 
  C26      1.0000 0.09932  0.67526  0.85494  Biso   1.000  C 
  C27      1.0000 0.80581  0.32193  0.99364  Biso   1.000  C 
  C28      1.0000 0.22491  0.32351  0.66180  Biso   1.000  C 
  C29      1.0000 0.09951  0.36938  0.35458  Biso   1.000  C 
  C30      1.0000 0.22461  0.72142  0.16236  Biso   1.000  C 
  C31      1.0000 0.80598  0.72274  0.49335  Biso   1.000  C 
  C32      1.0000 0.22447  0.27118  0.32071  Biso   1.000  C 
  C33      1.0000 0.38684  0.10281  0.35898  Biso   1.000  C 
  C34      1.0000 0.27822  0.27467  0.66319  Biso   1.000  C 
  C35      1.0000 0.36152  0.87401  0.99498  Biso   1.000  C 
  C36      1.0000 0.27776  0.22232  0.32212  Biso   1.000  C 
  C37      1.0000 0.11542  0.44240  0.62562  Biso   1.000  C 
  C38      1.0000 0.22417  0.77366  0.82119  Biso   1.000  C 
  C39      1.0000 0.30573  0.82207  0.99383  Biso   1.000  C 
  C40      1.0000 0.59945  0.86930  0.35463  Biso   1.000  C 
  C41      1.0000 0.72427  0.27348  0.82095  Biso   1.000  C 
  C42      1.0000 0.30599  0.22274  0.49339  Biso   1.000  C 
  C43      1.0000 0.36171  0.17066  0.49464  Biso   1.000  C 
  C44      1.0000 0.59935  0.17520  0.85485  Biso   1.000  C 
  C45      1.0000 0.88679  0.44167  0.85909  Biso   1.000  C 
  C46      1.0000 0.27748  0.82248  0.82257  Biso   1.000  C 
  C47      1.0000 0.38675  0.94174  0.85912  Biso   1.000  C 
  C48      1.0000 0.77759  0.32227  0.82232  Biso   1.000  C 
  H1       1.0000 0.20416  0.68265  0.29792  Biso   1.000  H 
  H2       1.0000 0.10033  0.32623  0.22424  Biso   1.000  H 
  H3       1.0000 0.79798  0.26870  0.30036  Biso   1.000  H 
  H4       1.0000 0.13155  0.57484  0.25573  Biso   1.000  H 
  H5       1.0000 0.40180  0.82592  0.26105  Biso   1.000  H 
  H6       1.0000 0.37062  0.07555  0.22895  Biso   1.000  H 
  H7       1.0000 0.70417  0.18263  0.29786  Biso   1.000  H 
  H8       1.0000 0.20445  0.26971  0.18396  Biso   1.000  H 
  H9       1.0000 0.79809  0.36097  0.68671  Biso   1.000  H 
  H10      1.0000 0.29823  0.18357  0.18656  Biso   1.000  H 
  H11      1.0000 0.60025  0.82614  0.22431  Biso   1.000  H 
  H12      1.0000 0.90187  0.32580  0.26092  Biso   1.000  H 
  H13      1.0000 0.37057  0.96899  0.72899  Biso   1.000  H 
  H14      1.0000 0.70441  0.76964  0.18397  Biso   1.000  H 
  H15      1.0000 0.87063  0.57558  0.22888  Biso   1.000  H 
  H16      1.0000 0.79821  0.68356  0.18653  Biso   1.000  H 
  H17      1.0000 0.70442  0.86226  0.79730  Biso   1.000  H 
  H18      1.0000 0.90196  0.71865  0.76086  Biso   1.000  H 
  H19      1.0000 0.20415  0.77512  0.68445  Biso   1.000  H 
  H20      1.0000 0.63159  0.07474  0.25557  Biso   1.000  H 
  H21      1.0000 0.20446  0.36229  0.79733  Biso   1.000  H 
  H22      1.0000 0.29824  0.27618  0.79993  Biso   1.000  H 
  H23      1.0000 0.79822  0.77621  0.79988  Biso   1.000  H 
  H24      1.0000 0.87061  0.46892  0.72897  Biso   1.000  H 
  H25      1.0000 0.40200  0.21868  0.76078  Biso   1.000  H 
  H26      1.0000 0.13163  0.46982  0.75551  Biso   1.000  H 
  H27      1.0000 0.63161  0.96977  0.75546  Biso   1.000  H 
  H28      1.0000 0.29795  0.86123  0.68702  Biso   1.000  H 
  H29      1.0000 0.10009  0.71841  0.72467  Biso   1.000  H 
  H30      1.0000 0.60011  0.21836  0.72459  Biso   1.000  H 
  H31      1.0000 0.29796  0.76875  0.30043  Biso   1.000  H 
  H32      1.0000 0.70428  0.27488  0.68414  Biso   1.000  H 
  N1       1.0000 0.44857  0.92857  0.07740  Biso   1.000  N 
  N2       1.0000 0.56363  0.07012  0.07440  Biso   1.000  N 
  N3       1.0000 0.55331  0.11574  0.90827  Biso   1.000  N 
  N4       1.0000 0.06367  0.47433  0.57438  Biso   1.000  N 
  N5       1.0000 0.93835  0.57040  0.41094  Biso   1.000  N 
  N6       1.0000 0.05330  0.61578  0.90831  Biso   1.000  N 
  N7       1.0000 0.94861  0.61586  0.57742  Biso   1.000  N 
  N8       1.0000 0.43836  0.07040  0.41092  Biso   1.000  N 
  N9       1.0000 0.05340  0.42871  0.40817  Biso   1.000  N 
  N10      1.0000 0.94860  0.42852  0.07741  Biso   1.000  N 
  N11      1.0000 0.43833  0.97400  0.91089  Biso   1.000  N 
  N12      1.0000 0.06361  0.57016  0.07446  Biso   1.000  N 
  N13      1.0000 0.93835  0.47397  0.91092  Biso   1.000  N 
  N14      1.0000 0.55335  0.92866  0.40818  Biso   1.000  N 
  N15      1.0000 0.56364  0.97429  0.57436  Biso   1.000  N 
  N16      1.0000 0.44864  0.11587  0.57735  Biso   1.000  N 
  Zn1      1.0000 0.00096  0.48797  0.24293  Biso   1.000  Zn
  Zn2      1.0000 0.50096  0.98796  0.24291  Biso   1.000  Zn
  Zn3      1.0000 0.00091  0.55640  0.74299  Biso   1.000  Zn
  Zn4      1.0000 0.50090  0.05640  0.74294  Biso   1.000  Zn
