data_image0
_cell_length_a       24.7453
_cell_length_b       8.57502
_cell_length_c       7.11055
_cell_angle_alpha    89.3934
_cell_angle_beta     89.6384
_cell_angle_gamma    90.0364

_symmetry_space_group_name_H-M    "P 1"
_symmetry_int_tables_number       1

loop_
  _symmetry_equiv_pos_as_xyz
  'x, y, z'

loop_
  _atom_site_label
  _atom_site_occupancy
  _atom_site_fract_x
  _atom_site_fract_y
  _atom_site_fract_z
  _atom_site_thermal_displace_type
  _atom_site_B_iso_or_equiv
  _atom_site_type_symbol
  C1       1.0000 0.28516  0.68643  0.10850  Biso   1.000  C 
  C2       1.0000 0.80794  0.29560  0.98179  Biso   1.000  C 
  C3       1.0000 0.23010  0.37854  0.61978  Biso   1.000  C 
  C4       1.0000 0.09776  0.30997  0.36808  Biso   1.000  C 
  C5       1.0000 0.22953  0.66415  0.11854  Biso   1.000  C 
  C6       1.0000 0.80815  0.74909  0.48055  Biso   1.000  C 
  C7       1.0000 0.39510  0.14089  0.33108  Biso   1.000  C 
  C8       1.0000 0.28568  0.35592  0.60822  Biso   1.000  C 
  C9       1.0000 0.36609  0.82727  0.97632  Biso   1.000  C 
  C10      1.0000 0.27224  0.16541  0.36612  Biso   1.000  C 
  C11      1.0000 0.10713  0.40301  0.65416  Biso   1.000  C 
  C12      1.0000 0.21688  0.85896  0.87592  Biso   1.000  C 
  C13      1.0000 0.30799  0.79553  0.98184  Biso   1.000  C 
  C14      1.0000 0.59776  0.81013  0.36832  Biso   1.000  C 
  C15      1.0000 0.71681  0.35913  0.87612  Biso   1.000  C 
  C16      1.0000 0.30810  0.24885  0.48103  Biso   1.000  C 
  C17      1.0000 0.36615  0.21672  0.47433  Biso   1.000  C 
  C18      1.0000 0.59771  0.23500  0.86424  Biso   1.000  C 
  C19      1.0000 0.89541  0.40250  0.83148  Biso   1.000  C 
  C20      1.0000 0.27252  0.88125  0.86587  Biso   1.000  C 
  C21      1.0000 0.39547  0.90247  0.83170  Biso   1.000  C 
  C22      1.0000 0.77245  0.38133  0.86588  Biso   1.000  C 
  C23      1.0000 0.09777  0.73472  0.86377  Biso   1.000  C 
  C24      1.0000 0.40474  0.23437  0.61681  Biso   1.000  C 
  C25      1.0000 0.21667  0.18803  0.37770  Biso   1.000  C 
  C26      1.0000 0.89513  0.64099  0.33055  Biso   1.000  C 
  C27      1.0000 0.77225  0.66566  0.36577  Biso   1.000  C 
  C28      1.0000 0.71668  0.68828  0.37756  Biso   1.000  C 
  C29      1.0000 0.63626  0.82771  0.51115  Biso   1.000  C 
  C30      1.0000 0.86619  0.71683  0.47380  Biso   1.000  C 
  C31      1.0000 0.69430  0.79547  0.50470  Biso   1.000  C 
  C32      1.0000 0.90427  0.30989  0.12029  Biso   1.000  C 
  C33      1.0000 0.73019  0.87885  0.61955  Biso   1.000  C 
  C34      1.0000 0.19407  0.74983  0.00252  Biso   1.000  C 
  C35      1.0000 0.78513  0.18656  0.10854  Biso   1.000  C 
  C36      1.0000 0.60662  0.14255  0.15310  Biso   1.000  C 
  C37      1.0000 0.10668  0.64229  0.15264  Biso   1.000  C 
  C38      1.0000 0.90476  0.73433  0.61635  Biso   1.000  C 
  C39      1.0000 0.60722  0.90340  0.65423  Biso   1.000  C 
  C40      1.0000 0.13598  0.71772  0.00802  Biso   1.000  C 
  C41      1.0000 0.78576  0.85621  0.60779  Biso   1.000  C 
  C42      1.0000 0.72949  0.16436  0.11877  Biso   1.000  C 
  C43      1.0000 0.63592  0.21800  0.00847  Biso   1.000  C 
  C44      1.0000 0.86605  0.32730  0.97613  Biso   1.000  C 
  C45      1.0000 0.40428  0.80988  0.12053  Biso   1.000  C 
  C46      1.0000 0.69401  0.25006  0.00284  Biso   1.000  C 
  C47      1.0000 0.19425  0.29518  0.50479  Biso   1.000  C 
  C48      1.0000 0.13621  0.32740  0.51109  Biso   1.000  C 
  H1       1.0000 0.19074  0.92909  0.78542  Biso   1.000  H 
  H2       1.0000 0.88223  0.43760  0.69202  Biso   1.000  H 
  H3       1.0000 0.61980  0.10778  0.29269  Biso   1.000  H 
  H4       1.0000 0.21439  0.46526  0.71717  Biso   1.000  H 
  H5       1.0000 0.31211  0.42419  0.69810  Biso   1.000  H 
  H6       1.0000 0.81222  0.92448  0.69757  Biso   1.000  H 
  H7       1.0000 0.40013  0.28290  0.75650  Biso   1.000  H 
  H8       1.0000 0.60266  0.28317  0.72325  Biso   1.000  H 
  H9       1.0000 0.62059  0.93870  0.79252  Biso   1.000  H 
  H10      1.0000 0.28859  0.96956  0.76903  Biso   1.000  H 
  H11      1.0000 0.10273  0.78285  0.72278  Biso   1.000  H 
  H12      1.0000 0.31132  0.61624  0.19886  Biso   1.000  H 
  H13      1.0000 0.69066  0.42928  0.78568  Biso   1.000  H 
  H14      1.0000 0.90015  0.78281  0.75606  Biso   1.000  H 
  H15      1.0000 0.12047  0.43825  0.79251  Biso   1.000  H 
  H16      1.0000 0.71451  0.96559  0.71694  Biso   1.000  H 
  H17      1.0000 0.10250  0.26160  0.22839  Biso   1.000  H 
  H18      1.0000 0.88166  0.60572  0.19237  Biso   1.000  H 
  H19      1.0000 0.78792  0.57889  0.26843  Biso   1.000  H 
  H20      1.0000 0.21347  0.57577  0.21528  Biso   1.000  H 
  H21      1.0000 0.81129  0.11634  0.19886  Biso   1.000  H 
  H22      1.0000 0.39928  0.76176  0.26151  Biso   1.000  H 
  H23      1.0000 0.38161  0.10550  0.19297  Biso   1.000  H 
  H24      1.0000 0.71345  0.07601  0.21557  Biso   1.000  H 
  H25      1.0000 0.11984  0.60749  0.29224  Biso   1.000  H 
  H26      1.0000 0.78852  0.46959  0.76897  Biso   1.000  H 
  H27      1.0000 0.28795  0.07866  0.26883  Biso   1.000  H 
  H28      1.0000 0.60246  0.76167  0.22865  Biso   1.000  H 
  H29      1.0000 0.89927  0.26173  0.26127  Biso   1.000  H 
  H30      1.0000 0.38230  0.93751  0.69220  Biso   1.000  H 
  H31      1.0000 0.69020  0.61994  0.28792  Biso   1.000  H 
  H32      1.0000 0.19022  0.11969  0.28795  Biso   1.000  H 
  N1       1.0000 0.95203  0.37364  0.06689  Biso   1.000  N 
  N2       1.0000 0.45230  0.17024  0.56397  Biso   1.000  N 
  N3       1.0000 0.55623  0.93195  0.59836  Biso   1.000  N 
  N4       1.0000 0.55015  0.87412  0.42087  Biso   1.000  N 
  N5       1.0000 0.94633  0.43102  0.88756  Biso   1.000  N 
  N6       1.0000 0.05581  0.61325  0.09646  Biso   1.000  N 
  N7       1.0000 0.44637  0.93102  0.88785  Biso   1.000  N 
  N8       1.0000 0.05014  0.37397  0.42051  Biso   1.000  N 
  N9       1.0000 0.55001  0.17076  0.91759  Biso   1.000  N 
  N10      1.0000 0.95232  0.67013  0.56353  Biso   1.000  N 
  N11      1.0000 0.05007  0.67052  0.91711  Biso   1.000  N 
  N12      1.0000 0.94613  0.61224  0.38612  Biso   1.000  N 
  N13      1.0000 0.05617  0.43163  0.59810  Biso   1.000  N 
  N14      1.0000 0.55576  0.11346  0.09693  Biso   1.000  N 
  N15      1.0000 0.45205  0.87366  0.06720  Biso   1.000  N 
  N16      1.0000 0.44611  0.11226  0.38659  Biso   1.000  N 
  Zn1      1.0000 0.00130  0.55661  0.74153  Biso   1.000  Zn
  Zn2      1.0000 0.00099  0.48705  0.24233  Biso   1.000  Zn
  Zn3      1.0000 0.50096  0.98706  0.24280  Biso   1.000  Zn
  Zn4      1.0000 0.50132  0.05675  0.74191  Biso   1.000  Zn
