data_image0
_cell_length_a       24.9406
_cell_length_b       6.77554
_cell_length_c       7.15516
_cell_angle_alpha    89.9384
_cell_angle_beta     92.0471
_cell_angle_gamma    89.9368

_symmetry_space_group_name_H-M    "P 1"
_symmetry_int_tables_number       1

loop_
  _symmetry_equiv_pos_as_xyz
  'x, y, z'

loop_
  _atom_site_label
  _atom_site_occupancy
  _atom_site_fract_x
  _atom_site_fract_y
  _atom_site_fract_z
  _atom_site_thermal_displace_type
  _atom_site_B_iso_or_equiv
  _atom_site_type_symbol
  C1       1.0000 0.28354  0.65843  0.11251  Biso   1.000  C 
  C2       1.0000 0.80773  0.27339  0.97522  Biso   1.000  C 
  C3       1.0000 0.22824  0.38706  0.62921  Biso   1.000  C 
  C4       1.0000 0.09715  0.26148  0.37433  Biso   1.000  C 
  C5       1.0000 0.40521  0.28260  0.61038  Biso   1.000  C 
  C6       1.0000 0.80794  0.77240  0.47457  Biso   1.000  C 
  C7       1.0000 0.28359  0.38676  0.61179  Biso   1.000  C 
  C8       1.0000 0.36614  0.78989  0.96619  Biso   1.000  C 
  C9       1.0000 0.27411  0.15807  0.35523  Biso   1.000  C 
  C10      1.0000 0.10673  0.37492  0.66258  Biso   1.000  C 
  C11      1.0000 0.21853  0.88657  0.87262  Biso   1.000  C 
  C12      1.0000 0.22817  0.65788  0.12969  Biso   1.000  C 
  C13      1.0000 0.59719  0.76170  0.37431  Biso   1.000  C 
  C14      1.0000 0.30776  0.77322  0.97512  Biso   1.000  C 
  C15      1.0000 0.77389  0.38736  0.85557  Biso   1.000  C 
  C16      1.0000 0.27391  0.88715  0.85547  Biso   1.000  C 
  C17      1.0000 0.89538  0.37555  0.82256  Biso   1.000  C 
  C18      1.0000 0.39543  0.87534  0.82244  Biso   1.000  C 
  C19      1.0000 0.36627  0.25511  0.46567  Biso   1.000  C 
  C20      1.0000 0.30789  0.27198  0.47462  Biso   1.000  C 
  C21      1.0000 0.71852  0.38679  0.87272  Biso   1.000  C 
  C22      1.0000 0.59700  0.28211  0.87392  Biso   1.000  C 
  C23      1.0000 0.09703  0.78184  0.87389  Biso   1.000  C 
  C24      1.0000 0.90504  0.26233  0.11110  Biso   1.000  C 
  C25      1.0000 0.39552  0.16899  0.32223  Biso   1.000  C 
  C26      1.0000 0.89556  0.66930  0.32216  Biso   1.000  C 
  C27      1.0000 0.77416  0.65839  0.35522  Biso   1.000  C 
  C28      1.0000 0.71881  0.65866  0.37260  Biso   1.000  C 
  C29      1.0000 0.63612  0.78967  0.51897  Biso   1.000  C 
  C30      1.0000 0.21875  0.15838  0.37264  Biso   1.000  C 
  C31      1.0000 0.69451  0.77329  0.50986  Biso   1.000  C 
  C32      1.0000 0.72828  0.88747  0.62907  Biso   1.000  C 
  C33      1.0000 0.19431  0.77168  0.00997  Biso   1.000  C 
  C34      1.0000 0.78350  0.15858  0.11258  Biso   1.000  C 
  C35      1.0000 0.60667  0.16891  0.16253  Biso   1.000  C 
  C36      1.0000 0.10670  0.66868  0.16249  Biso   1.000  C 
  C37      1.0000 0.90527  0.78290  0.61031  Biso   1.000  C 
  C38      1.0000 0.86632  0.75548  0.46562  Biso   1.000  C 
  C39      1.0000 0.13594  0.75454  0.01884  Biso   1.000  C 
  C40      1.0000 0.60680  0.87527  0.66251  Biso   1.000  C 
  C41      1.0000 0.13607  0.28937  0.51905  Biso   1.000  C 
  C42      1.0000 0.69429  0.27188  0.01001  Biso   1.000  C 
  C43      1.0000 0.40507  0.76223  0.11105  Biso   1.000  C 
  C44      1.0000 0.19446  0.27298  0.50995  Biso   1.000  C 
  C45      1.0000 0.63592  0.25478  0.01889  Biso   1.000  C 
  C46      1.0000 0.72814  0.15807  0.12973  Biso   1.000  C 
  C47      1.0000 0.78363  0.88727  0.61164  Biso   1.000  C 
  C48      1.0000 0.86610  0.29007  0.96630  Biso   1.000  C 
  H1       1.0000 0.71106  0.98195  0.73460  Biso   1.000  H 
  H2       1.0000 0.40068  0.34076  0.75040  Biso   1.000  H 
  H3       1.0000 0.19388  0.97824  0.77820  Biso   1.000  H 
  H4       1.0000 0.62032  0.12516  0.30222  Biso   1.000  H 
  H5       1.0000 0.30821  0.47846  0.70594  Biso   1.000  H 
  H6       1.0000 0.80822  0.97905  0.70580  Biso   1.000  H 
  H7       1.0000 0.21104  0.48150  0.73485  Biso   1.000  H 
  H8       1.0000 0.69386  0.47845  0.77830  Biso   1.000  H 
  H9       1.0000 0.29105  0.98174  0.74977  Biso   1.000  H 
  H10      1.0000 0.10158  0.83975  0.73366  Biso   1.000  H 
  H11      1.0000 0.30819  0.56667  0.20685  Biso   1.000  H 
  H12      1.0000 0.90077  0.84103  0.75038  Biso   1.000  H 
  H13      1.0000 0.60157  0.34001  0.73368  Biso   1.000  H 
  H14      1.0000 0.12037  0.41900  0.80205  Biso   1.000  H 
  H15      1.0000 0.62044  0.91938  0.80196  Biso   1.000  H 
  H16      1.0000 0.88171  0.41952  0.68297  Biso   1.000  H 
  H17      1.0000 0.71098  0.06351  0.23545  Biso   1.000  H 
  H18      1.0000 0.79103  0.48200  0.74991  Biso   1.000  H 
  H19      1.0000 0.10175  0.20356  0.23423  Biso   1.000  H 
  H20      1.0000 0.79137  0.56408  0.24949  Biso   1.000  H 
  H21      1.0000 0.21102  0.56339  0.23547  Biso   1.000  H 
  H22      1.0000 0.40050  0.70442  0.25130  Biso   1.000  H 
  H23      1.0000 0.38183  0.12492  0.18283  Biso   1.000  H 
  H24      1.0000 0.12034  0.62491  0.30218  Biso   1.000  H 
  H25      1.0000 0.80816  0.06688  0.20694  Biso   1.000  H 
  H26      1.0000 0.29129  0.06380  0.24943  Biso   1.000  H 
  H27      1.0000 0.60176  0.70379  0.23420  Biso   1.000  H 
  H28      1.0000 0.90050  0.20446  0.25133  Biso   1.000  H 
  H29      1.0000 0.69423  0.56691  0.27845  Biso   1.000  H 
  H30      1.0000 0.19415  0.06672  0.27846  Biso   1.000  H 
  H31      1.0000 0.88186  0.62519  0.18278  Biso   1.000  H 
  H32      1.0000 0.38177  0.91926  0.68284  Biso   1.000  H 
  N1       1.0000 0.44680  0.90372  0.88043  Biso   1.000  N 
  N2       1.0000 0.04917  0.33303  0.42522  Biso   1.000  N 
  N3       1.0000 0.95298  0.33378  0.05995  Biso   1.000  N 
  N4       1.0000 0.45312  0.21045  0.55947  Biso   1.000  N 
  N5       1.0000 0.54921  0.83331  0.42526  Biso   1.000  N 
  N6       1.0000 0.94677  0.40383  0.88046  Biso   1.000  N 
  N7       1.0000 0.05536  0.63974  0.10431  Biso   1.000  N 
  N8       1.0000 0.55540  0.90354  0.60453  Biso   1.000  N 
  N9       1.0000 0.45300  0.83375  0.05996  Biso   1.000  N 
  N10      1.0000 0.04914  0.70973  0.92482  Biso   1.000  N 
  N11      1.0000 0.94692  0.64023  0.38019  Biso   1.000  N 
  N12      1.0000 0.05533  0.40320  0.60453  Biso   1.000  N 
  N13      1.0000 0.55533  0.13996  0.10430  Biso   1.000  N 
  N14      1.0000 0.44689  0.14013  0.38025  Biso   1.000  N 
  N15      1.0000 0.95317  0.71056  0.55941  Biso   1.000  N 
  N16      1.0000 0.54911  0.21001  0.92483  Biso   1.000  N 
  Zn1      1.0000 0.00115  0.48140  0.24230  Biso   1.000  Zn
  Zn2      1.0000 0.50113  0.98147  0.24231  Biso   1.000  Zn
  Zn3      1.0000 0.00106  0.56193  0.74235  Biso   1.000  Zn
  Zn4      1.0000 0.50106  0.06204  0.74229  Biso   1.000  Zn
