data_image0
_cell_length_a       24.9452
_cell_length_b       5.80901
_cell_length_c       7.2388
_cell_angle_alpha    90.0096
_cell_angle_beta     92.839
_cell_angle_gamma    89.9802

_symmetry_space_group_name_H-M    "P 1"
_symmetry_int_tables_number       1

loop_
  _symmetry_equiv_pos_as_xyz
  'x, y, z'

loop_
  _atom_site_label
  _atom_site_occupancy
  _atom_site_fract_x
  _atom_site_fract_y
  _atom_site_fract_z
  _atom_site_thermal_displace_type
  _atom_site_B_iso_or_equiv
  _atom_site_type_symbol
  C1       1.0000 0.28085  0.58744  0.06620  Biso   1.000  C 
  C2       1.0000 0.77683  0.59828  0.40011  Biso   1.000  C 
  C3       1.0000 0.72165  0.58909  0.41855  Biso   1.000  C 
  C4       1.0000 0.63652  0.76966  0.52221  Biso   1.000  C 
  C5       1.0000 0.22138  0.08752  0.41874  Biso   1.000  C 
  C6       1.0000 0.69498  0.76412  0.51119  Biso   1.000  C 
  C7       1.0000 0.19469  0.78092  0.01117  Biso   1.000  C 
  C8       1.0000 0.78066  0.08935  0.06640  Biso   1.000  C 
  C9       1.0000 0.60745  0.16561  0.15902  Biso   1.000  C 
  C10      1.0000 0.10765  0.66413  0.15910  Biso   1.000  C 
  C11      1.0000 0.90612  0.83035  0.59957  Biso   1.000  C 
  C12      1.0000 0.86619  0.77691  0.46237  Biso   1.000  C 
  C13      1.0000 0.13625  0.77504  0.02236  Biso   1.000  C 
  C14      1.0000 0.60777  0.87953  0.65916  Biso   1.000  C 
  C15      1.0000 0.13632  0.26844  0.52257  Biso   1.000  C 
  C16      1.0000 0.69449  0.28258  0.01119  Biso   1.000  C 
  C17      1.0000 0.40583  0.71404  0.09940  Biso   1.000  C 
  C18      1.0000 0.19477  0.26273  0.51142  Biso   1.000  C 
  C19      1.0000 0.63604  0.27638  0.02220  Biso   1.000  C 
  C20      1.0000 0.72548  0.09819  0.08477  Biso   1.000  C 
  C21      1.0000 0.78109  0.95784  0.56641  Biso   1.000  C 
  C22      1.0000 0.86570  0.27020  0.96267  Biso   1.000  C 
  C23      1.0000 0.89480  0.66624  0.32546  Biso   1.000  C 
  C24      1.0000 0.39458  0.16428  0.32543  Biso   1.000  C 
  C25      1.0000 0.72590  0.94865  0.58481  Biso   1.000  C 
  C26      1.0000 0.09629  0.82922  0.88540  Biso   1.000  C 
  C27      1.0000 0.80725  0.26454  0.97375  Biso   1.000  C 
  C28      1.0000 0.22574  0.44721  0.58485  Biso   1.000  C 
  C29      1.0000 0.09641  0.21425  0.38548  Biso   1.000  C 
  C30      1.0000 0.90560  0.21567  0.09971  Biso   1.000  C 
  C31      1.0000 0.80773  0.78285  0.47360  Biso   1.000  C 
  C32      1.0000 0.28092  0.45613  0.56630  Biso   1.000  C 
  C33      1.0000 0.36590  0.76819  0.96234  Biso   1.000  C 
  C34      1.0000 0.27655  0.09644  0.40016  Biso   1.000  C 
  C35      1.0000 0.10763  0.37869  0.65948  Biso   1.000  C 
  C36      1.0000 0.22129  0.95603  0.91850  Biso   1.000  C 
  C37      1.0000 0.22566  0.59648  0.08465  Biso   1.000  C 
  C38      1.0000 0.40589  0.32888  0.59935  Biso   1.000  C 
  C39      1.0000 0.30745  0.76250  0.97351  Biso   1.000  C 
  C40      1.0000 0.59664  0.71546  0.38500  Biso   1.000  C 
  C41      1.0000 0.59609  0.32987  0.88501  Biso   1.000  C 
  C42      1.0000 0.30750  0.28096  0.47356  Biso   1.000  C 
  C43      1.0000 0.36595  0.27500  0.46227  Biso   1.000  C 
  C44      1.0000 0.72107  0.45778  0.91861  Biso   1.000  C 
  C45      1.0000 0.89441  0.38046  0.82586  Biso   1.000  C 
  C46      1.0000 0.27647  0.94697  0.89998  Biso   1.000  C 
  C47      1.0000 0.77626  0.44892  0.90019  Biso   1.000  C 
  C48      1.0000 0.39456  0.87861  0.82550  Biso   1.000  C 
  H1       1.0000 0.10044  0.13339  0.25149  Biso   1.000  H 
  H2       1.0000 0.12249  0.59840  0.29220  Biso   1.000  H 
  H3       1.0000 0.79641  0.45665  0.33114  Biso   1.000  H 
  H4       1.0000 0.20613  0.45488  0.15368  Biso   1.000  H 
  H5       1.0000 0.40180  0.63313  0.23336  Biso   1.000  H 
  H6       1.0000 0.37977  0.09889  0.19217  Biso   1.000  H 
  H7       1.0000 0.80323  0.94261  0.12252  Biso   1.000  H 
  H8       1.0000 0.19884  0.94066  0.36279  Biso   1.000  H 
  H9       1.0000 0.60072  0.63476  0.25097  Biso   1.000  H 
  H10      1.0000 0.90155  0.13471  0.23363  Biso   1.000  H 
  H11      1.0000 0.69916  0.44211  0.36251  Biso   1.000  H 
  H12      1.0000 0.87997  0.60117  0.19213  Biso   1.000  H 
  H13      1.0000 0.37974  0.94410  0.69229  Biso   1.000  H 
  H14      1.0000 0.79577  0.59051  0.83105  Biso   1.000  H 
  H15      1.0000 0.29608  0.95478  0.33107  Biso   1.000  H 
  H16      1.0000 0.70595  0.95651  0.15373  Biso   1.000  H 
  H17      1.0000 0.40191  0.40983  0.73336  Biso   1.000  H 
  H18      1.0000 0.62252  0.94484  0.79253  Biso   1.000  H 
  H19      1.0000 0.87963  0.44617  0.69266  Biso   1.000  H 
  H20      1.0000 0.70634  0.09014  0.65398  Biso   1.000  H 
  H21      1.0000 0.19873  0.10282  0.86242  Biso   1.000  H 
  H22      1.0000 0.30348  0.60294  0.62230  Biso   1.000  H 
  H23      1.0000 0.80360  0.10467  0.62258  Biso   1.000  H 
  H24      1.0000 0.20622  0.58882  0.65402  Biso   1.000  H 
  H25      1.0000 0.62227  0.10045  0.29233  Biso   1.000  H 
  H26      1.0000 0.29599  0.08853  0.83084  Biso   1.000  H 
  H27      1.0000 0.10022  0.91038  0.75149  Biso   1.000  H 
  H28      1.0000 0.30340  0.44059  0.12228  Biso   1.000  H 
  H29      1.0000 0.90215  0.91122  0.73360  Biso   1.000  H 
  H30      1.0000 0.60003  0.41075  0.75097  Biso   1.000  H 
  H31      1.0000 0.12241  0.44405  0.79278  Biso   1.000  H 
  H32      1.0000 0.69849  0.60446  0.86240  Biso   1.000  H 
  N1       1.0000 0.04818  0.74619  0.93342  Biso   1.000  N 
  N2       1.0000 0.54800  0.24661  0.93300  Biso   1.000  N 
  N3       1.0000 0.95422  0.74707  0.55159  Biso   1.000  N 
  N4       1.0000 0.44675  0.14487  0.38005  Biso   1.000  N 
  N5       1.0000 0.55530  0.14577  0.10432  Biso   1.000  N 
  N6       1.0000 0.05546  0.39768  0.60484  Biso   1.000  N 
  N7       1.0000 0.94694  0.64633  0.38020  Biso   1.000  N 
  N8       1.0000 0.45398  0.79662  0.05139  Biso   1.000  N 
  N9       1.0000 0.95379  0.29777  0.05168  Biso   1.000  N 
  N10      1.0000 0.05549  0.64485  0.10455  Biso   1.000  N 
  N11      1.0000 0.94659  0.39893  0.88042  Biso   1.000  N 
  N12      1.0000 0.54844  0.79751  0.43301  Biso   1.000  N 
  N13      1.0000 0.45402  0.24590  0.55134  Biso   1.000  N 
  N14      1.0000 0.04824  0.29677  0.43348  Biso   1.000  N 
  N15      1.0000 0.44673  0.89762  0.88008  Biso   1.000  N 
  N16      1.0000 0.55559  0.89821  0.60448  Biso   1.000  N 
  Zn1      1.0000 0.00109  0.57887  0.74248  Biso   1.000  Zn
  Zn2      1.0000 0.00113  0.46427  0.24252  Biso   1.000  Zn
  Zn3      1.0000 0.50111  0.96418  0.24217  Biso   1.000  Zn
  Zn4      1.0000 0.50107  0.07842  0.74222  Biso   1.000  Zn
