data_image0
_cell_length_a       19.1855
_cell_length_b       18.6171
_cell_length_c       7.26778
_cell_angle_alpha    90.008
_cell_angle_beta     87.0384
_cell_angle_gamma    90.0005

_symmetry_space_group_name_H-M    "P 1"
_symmetry_int_tables_number       1

loop_
  _symmetry_equiv_pos_as_xyz
  'x, y, z'

loop_
  _atom_site_label
  _atom_site_occupancy
  _atom_site_fract_x
  _atom_site_fract_y
  _atom_site_fract_z
  _atom_site_thermal_displace_type
  _atom_site_B_iso_or_equiv
  _atom_site_type_symbol
  C1       1.0000 0.29334  0.77811  0.14140  Biso   1.000  C 
  C2       1.0000 0.80463  0.32574  0.99229  Biso   1.000  C 
  C3       1.0000 0.24109  0.31837  0.64167  Biso   1.000  C 
  C4       1.0000 0.10583  0.40510  0.34315  Biso   1.000  C 
  C5       1.0000 0.39635  0.13937  0.64155  Biso   1.000  C 
  C6       1.0000 0.80455  0.71889  0.49226  Biso   1.000  C 
  C7       1.0000 0.29325  0.26648  0.64136  Biso   1.000  C 
  C8       1.0000 0.35947  0.88033  0.99222  Biso   1.000  C 
  C9       1.0000 0.26099  0.22605  0.34333  Biso   1.000  C 
  C10      1.0000 0.11399  0.42040  0.64204  Biso   1.000  C 
  C11      1.0000 0.20892  0.76667  0.84368  Biso   1.000  C 
  C12      1.0000 0.24125  0.72615  0.14152  Biso   1.000  C 
  C13      1.0000 0.60582  0.90512  0.34312  Biso   1.000  C 
  C14      1.0000 0.30463  0.82574  0.99240  Biso   1.000  C 
  C15      1.0000 0.76101  0.31864  0.84343  Biso   1.000  C 
  C16      1.0000 0.26101  0.81862  0.84354  Biso   1.000  C 
  C17      1.0000 0.88799  0.42068  0.84289  Biso   1.000  C 
  C18      1.0000 0.38796  0.92070  0.84293  Biso   1.000  C 
  C19      1.0000 0.35946  0.16435  0.49204  Biso   1.000  C 
  C20      1.0000 0.30459  0.21892  0.49221  Biso   1.000  C 
  C21      1.0000 0.70892  0.26669  0.84352  Biso   1.000  C 
  C22      1.0000 0.60596  0.13941  0.84301  Biso   1.000  C 
  C23      1.0000 0.10601  0.63938  0.84311  Biso   1.000  C 
  C24      1.0000 0.89653  0.40518  0.14157  Biso   1.000  C 
  C25      1.0000 0.38818  0.12416  0.34266  Biso   1.000  C 
  C26      1.0000 0.88813  0.62412  0.34272  Biso   1.000  C 
  C27      1.0000 0.76093  0.72599  0.34341  Biso   1.000  C 
  C28      1.0000 0.70881  0.77792  0.34365  Biso   1.000  C 
  C29      1.0000 0.64265  0.88012  0.49275  Biso   1.000  C 
  C30      1.0000 0.20886  0.27797  0.34362  Biso   1.000  C 
  C31      1.0000 0.69747  0.82551  0.49275  Biso   1.000  C 
  C32      1.0000 0.74108  0.81839  0.64160  Biso   1.000  C 
  C33      1.0000 0.19764  0.71904  0.99268  Biso   1.000  C 
  C34      1.0000 0.79334  0.27810  0.14125  Biso   1.000  C 
  C35      1.0000 0.61417  0.12420  0.14188  Biso   1.000  C 
  C36      1.0000 0.11412  0.62421  0.14201  Biso   1.000  C 
  C37      1.0000 0.89635  0.63937  0.64158  Biso   1.000  C 
  C38      1.0000 0.85943  0.66433  0.49209  Biso   1.000  C 
  C39      1.0000 0.14283  0.66442  0.99270  Biso   1.000  C 
  C40      1.0000 0.61401  0.92042  0.64199  Biso   1.000  C 
  C41      1.0000 0.14266  0.38011  0.49280  Biso   1.000  C 
  C42      1.0000 0.69764  0.21904  0.99249  Biso   1.000  C 
  C43      1.0000 0.39654  0.90518  0.14159  Biso   1.000  C 
  C44      1.0000 0.19749  0.32551  0.49281  Biso   1.000  C 
  C45      1.0000 0.64283  0.16443  0.99253  Biso   1.000  C 
  C46      1.0000 0.74125  0.22614  0.14134  Biso   1.000  C 
  C47      1.0000 0.79323  0.76650  0.64134  Biso   1.000  C 
  C48      1.0000 0.85947  0.38033  0.99218  Biso   1.000  C 
  H1       1.0000 0.73495  0.85502  0.75853  Biso   1.000  H 
  H2       1.0000 0.39137  0.15444  0.78599  Biso   1.000  H 
  H3       1.0000 0.17549  0.76385  0.72689  Biso   1.000  H 
  H4       1.0000 0.62604  0.12570  0.28634  Biso   1.000  H 
  H5       1.0000 0.32668  0.26366  0.75811  Biso   1.000  H 
  H6       1.0000 0.82668  0.76369  0.75808  Biso   1.000  H 
  H7       1.0000 0.23493  0.35496  0.75867  Biso   1.000  H 
  H8       1.0000 0.67549  0.26388  0.72674  Biso   1.000  H 
  H9       1.0000 0.26712  0.85529  0.72670  Biso   1.000  H 
  H10      1.0000 0.11102  0.65445  0.69869  Biso   1.000  H 
  H11      1.0000 0.32675  0.78093  0.25820  Biso   1.000  H 
  H12      1.0000 0.89139  0.65445  0.78602  Biso   1.000  H 
  H13      1.0000 0.61090  0.15449  0.69860  Biso   1.000  H 
  H14      1.0000 0.12579  0.41895  0.78653  Biso   1.000  H 
  H15      1.0000 0.62584  0.91898  0.78647  Biso   1.000  H 
  H16      1.0000 0.87594  0.41932  0.69857  Biso   1.000  H 
  H17      1.0000 0.73515  0.18945  0.25810  Biso   1.000  H 
  H18      1.0000 0.76712  0.35532  0.72662  Biso   1.000  H 
  H19      1.0000 0.11079  0.38996  0.19876  Biso   1.000  H 
  H20      1.0000 0.76706  0.68936  0.22649  Biso   1.000  H 
  H21      1.0000 0.23515  0.68948  0.25830  Biso   1.000  H 
  H22      1.0000 0.39179  0.88996  0.28594  Biso   1.000  H 
  H23      1.0000 0.37631  0.12564  0.19821  Biso   1.000  H 
  H24      1.0000 0.12594  0.62572  0.28650  Biso   1.000  H 
  H25      1.0000 0.82675  0.28090  0.25805  Biso   1.000  H 
  H26      1.0000 0.26715  0.18945  0.22634  Biso   1.000  H 
  H27      1.0000 0.61077  0.88999  0.19873  Biso   1.000  H 
  H28      1.0000 0.89175  0.38997  0.28594  Biso   1.000  H 
  H29      1.0000 0.67539  0.78076  0.22687  Biso   1.000  H 
  H30      1.0000 0.17546  0.28084  0.22681  Biso   1.000  H 
  H31      1.0000 0.87624  0.62561  0.19828  Biso   1.000  H 
  H32      1.0000 0.37589  0.91935  0.69862  Biso   1.000  H 
  N1       1.0000 0.43768  0.96547  0.89979  Biso   1.000  N 
  N2       1.0000 0.05937  0.45582  0.39978  Biso   1.000  N 
  N3       1.0000 0.94298  0.45587  0.08475  Biso   1.000  N 
  N4       1.0000 0.44289  0.08875  0.58475  Biso   1.000  N 
  N5       1.0000 0.55937  0.95585  0.39977  Biso   1.000  N 
  N6       1.0000 0.93771  0.46546  0.89979  Biso   1.000  N 
  N7       1.0000 0.06453  0.57934  0.08492  Biso   1.000  N 
  N8       1.0000 0.56443  0.96530  0.58486  Biso   1.000  N 
  N9       1.0000 0.44299  0.95588  0.08473  Biso   1.000  N 
  N10      1.0000 0.05951  0.58871  0.89980  Biso   1.000  N 
  N11      1.0000 0.93781  0.57933  0.39969  Biso   1.000  N 
  N12      1.0000 0.06441  0.46527  0.58487  Biso   1.000  N 
  N13      1.0000 0.56456  0.07933  0.08487  Biso   1.000  N 
  N14      1.0000 0.43784  0.07934  0.39965  Biso   1.000  N 
  N15      1.0000 0.94289  0.58875  0.58478  Biso   1.000  N 
  N16      1.0000 0.55948  0.08873  0.89978  Biso   1.000  N 
  Zn1      1.0000 0.00118  0.51664  0.24226  Biso   1.000  Zn
  Zn2      1.0000 0.50120  0.01665  0.24223  Biso   1.000  Zn
  Zn3      1.0000 0.00113  0.52805  0.74229  Biso   1.000  Zn
  Zn4      1.0000 0.50112  0.02805  0.74230  Biso   1.000  Zn
