data_image0
_cell_length_a       20.2293
_cell_length_b       17.5668
_cell_length_c       6.75651
_cell_angle_alpha    89.8
_cell_angle_beta     75.359
_cell_angle_gamma    89.9992

_symmetry_space_group_name_H-M    "P 1"
_symmetry_int_tables_number       1

loop_
  _symmetry_equiv_pos_as_xyz
  'x, y, z'

loop_
  _atom_site_label
  _atom_site_occupancy
  _atom_site_fract_x
  _atom_site_fract_y
  _atom_site_fract_z
  _atom_site_thermal_displace_type
  _atom_site_B_iso_or_equiv
  _atom_site_type_symbol
  C1       1.0000 0.27787  0.77603  0.16203  Biso   1.000  C 
  C2       1.0000 0.80450  0.32510  0.99578  Biso   1.000  C 
  C3       1.0000 0.22633  0.31996  0.65821  Biso   1.000  C 
  C4       1.0000 0.10046  0.38231  0.35041  Biso   1.000  C 
  C5       1.0000 0.22588  0.72471  0.15837  Biso   1.000  C 
  C6       1.0000 0.80442  0.71941  0.49642  Biso   1.000  C 
  C7       1.0000 0.38226  0.10431  0.36530  Biso   1.000  C 
  C8       1.0000 0.27833  0.26860  0.66169  Biso   1.000  C 
  C9       1.0000 0.35917  0.87917  0.99919  Biso   1.000  C 
  C10      1.0000 0.27586  0.22458  0.32716  Biso   1.000  C 
  C11      1.0000 0.12017  0.44050  0.61917  Biso   1.000  C 
  C12      1.0000 0.22430  0.76874  0.82231  Biso   1.000  C 
  C13      1.0000 0.30449  0.82511  0.99587  Biso   1.000  C 
  C14      1.0000 0.60044  0.88229  0.35047  Biso   1.000  C 
  C15      1.0000 0.72431  0.26872  0.82223  Biso   1.000  C 
  C16      1.0000 0.30451  0.21949  0.49621  Biso   1.000  C 
  C17      1.0000 0.35922  0.16544  0.49920  Biso   1.000  C 
  C18      1.0000 0.60109  0.16207  0.84808  Biso   1.000  C 
  C19      1.0000 0.88262  0.44032  0.86442  Biso   1.000  C 
  C20      1.0000 0.27630  0.82006  0.82597  Biso   1.000  C 
  C21      1.0000 0.38260  0.94033  0.86448  Biso   1.000  C 
  C22      1.0000 0.77630  0.32006  0.82590  Biso   1.000  C 
  C23      1.0000 0.10108  0.66207  0.84812  Biso   1.000  C 
  C24      1.0000 0.40167  0.16212  0.63498  Biso   1.000  C 
  C25      1.0000 0.22387  0.27595  0.32366  Biso   1.000  C 
  C26      1.0000 0.88220  0.60424  0.36544  Biso   1.000  C 
  C27      1.0000 0.77574  0.72446  0.32744  Biso   1.000  C 
  C28      1.0000 0.72376  0.77584  0.32393  Biso   1.000  C 
  C29      1.0000 0.64299  0.87911  0.48601  Biso   1.000  C 
  C30      1.0000 0.85915  0.66538  0.49933  Biso   1.000  C 
  C31      1.0000 0.69764  0.82499  0.48930  Biso   1.000  C 
  C32      1.0000 0.90118  0.38245  0.13613  Biso   1.000  C 
  C33      1.0000 0.72630  0.81993  0.65834  Biso   1.000  C 
  C34      1.0000 0.19770  0.71963  0.98844  Biso   1.000  C 
  C35      1.0000 0.77789  0.27601  0.16193  Biso   1.000  C 
  C36      1.0000 0.61963  0.10441  0.12015  Biso   1.000  C 
  C37      1.0000 0.11959  0.60446  0.12028  Biso   1.000  C 
  C38      1.0000 0.90163  0.66208  0.63506  Biso   1.000  C 
  C39      1.0000 0.62014  0.94047  0.61926  Biso   1.000  C 
  C40      1.0000 0.14305  0.66552  0.98523  Biso   1.000  C 
  C41      1.0000 0.77829  0.76856  0.66185  Biso   1.000  C 
  C42      1.0000 0.72590  0.22468  0.15827  Biso   1.000  C 
  C43      1.0000 0.64308  0.16549  0.98514  Biso   1.000  C 
  C44      1.0000 0.85917  0.37916  0.99912  Biso   1.000  C 
  C45      1.0000 0.40117  0.88247  0.13621  Biso   1.000  C 
  C46      1.0000 0.69772  0.21960  0.98834  Biso   1.000  C 
  C47      1.0000 0.19770  0.32505  0.48911  Biso   1.000  C 
  C48      1.0000 0.14303  0.37915  0.48591  Biso   1.000  C 
  H1       1.0000 0.20436  0.76637  0.68670  Biso   1.000  H 
  H2       1.0000 0.86532  0.46024  0.73360  Biso   1.000  H 
  H3       1.0000 0.63688  0.08462  0.25117  Biso   1.000  H 
  H4       1.0000 0.20719  0.35656  0.79047  Biso   1.000  H 
  H5       1.0000 0.29863  0.26618  0.79669  Biso   1.000  H 
  H6       1.0000 0.79861  0.76617  0.79680  Biso   1.000  H 
  H7       1.0000 0.40282  0.19824  0.76421  Biso   1.000  H 
  H8       1.0000 0.60038  0.19814  0.71774  Biso   1.000  H 
  H9       1.0000 0.63797  0.96053  0.74865  Biso   1.000  H 
  H10      1.0000 0.29584  0.85666  0.69319  Biso   1.000  H 
  H11      1.0000 0.10038  0.69812  0.71774  Biso   1.000  H 
  H12      1.0000 0.29779  0.77847  0.29768  Biso   1.000  H 
  H13      1.0000 0.70438  0.26634  0.68662  Biso   1.000  H 
  H14      1.0000 0.90278  0.69821  0.76429  Biso   1.000  H 
  H15      1.0000 0.13802  0.46057  0.74852  Biso   1.000  H 
  H16      1.0000 0.70720  0.85658  0.79052  Biso   1.000  H 
  H17      1.0000 0.09915  0.34598  0.22172  Biso   1.000  H 
  H18      1.0000 0.86451  0.58434  0.23565  Biso   1.000  H 
  H19      1.0000 0.79489  0.68785  0.19521  Biso   1.000  H 
  H20      1.0000 0.20634  0.68814  0.29121  Biso   1.000  H 
  H21      1.0000 0.79781  0.27844  0.29758  Biso   1.000  H 
  H22      1.0000 0.40191  0.84630  0.26635  Biso   1.000  H 
  H23      1.0000 0.36458  0.08442  0.23547  Biso   1.000  H 
  H24      1.0000 0.70637  0.18810  0.29109  Biso   1.000  H 
  H25      1.0000 0.13683  0.58469  0.25135  Biso   1.000  H 
  H26      1.0000 0.79582  0.35668  0.69313  Biso   1.000  H 
  H27      1.0000 0.29504  0.18800  0.19487  Biso   1.000  H 
  H28      1.0000 0.59914  0.84595  0.22179  Biso   1.000  H 
  H29      1.0000 0.90192  0.34627  0.26626  Biso   1.000  H 
  H30      1.0000 0.36530  0.96025  0.73366  Biso   1.000  H 
  H31      1.0000 0.70350  0.77829  0.18891  Biso   1.000  H 
  H32      1.0000 0.20363  0.27842  0.18860  Biso   1.000  H 
  N1       1.0000 0.94596  0.44052  0.08493  Biso   1.000  N 
  N2       1.0000 0.44632  0.10408  0.58379  Biso   1.000  N 
  N3       1.0000 0.56850  0.97681  0.56629  Biso   1.000  N 
  N4       1.0000 0.55590  0.94046  0.40118  Biso   1.000  N 
  N5       1.0000 0.93406  0.47667  0.91797  Biso   1.000  N 
  N6       1.0000 0.06817  0.56803  0.06683  Biso   1.000  N 
  N7       1.0000 0.43405  0.97668  0.91801  Biso   1.000  N 
  N8       1.0000 0.05591  0.44047  0.40116  Biso   1.000  N 
  N9       1.0000 0.55632  0.10403  0.89959  Biso   1.000  N 
  N10      1.0000 0.94630  0.60406  0.58382  Biso   1.000  N 
  N11      1.0000 0.05631  0.60403  0.89963  Biso   1.000  N 
  N12      1.0000 0.93386  0.56791  0.41823  Biso   1.000  N 
  N13      1.0000 0.06852  0.47682  0.56625  Biso   1.000  N 
  N14      1.0000 0.56820  0.06800  0.06673  Biso   1.000  N 
  N15      1.0000 0.44595  0.94054  0.08497  Biso   1.000  N 
  N16      1.0000 0.43389  0.06795  0.41816  Biso   1.000  N 
  Zn1      1.0000 0.00139  0.54940  0.74189  Biso   1.000  Zn
  Zn2      1.0000 0.00091  0.49521  0.24271  Biso   1.000  Zn
  Zn3      1.0000 0.50091  0.99520  0.24267  Biso   1.000  Zn
  Zn4      1.0000 0.50138  0.04940  0.74189  Biso   1.000  Zn
