data_image0
_cell_length_a       24.9371
_cell_length_b       5.61961
_cell_length_c       7.22905
_cell_angle_alpha    89.9798
_cell_angle_beta     93.0777
_cell_angle_gamma    90.0131

_symmetry_space_group_name_H-M    "P 1"
_symmetry_int_tables_number       1

loop_
  _symmetry_equiv_pos_as_xyz
  'x, y, z'

loop_
  _atom_site_label
  _atom_site_occupancy
  _atom_site_fract_x
  _atom_site_fract_y
  _atom_site_fract_z
  _atom_site_thermal_displace_type
  _atom_site_B_iso_or_equiv
  _atom_site_type_symbol
  C1       1.0000 0.28050  0.57833  0.06440  Biso   1.000  C 
  C2       1.0000 0.80732  0.26200  0.97398  Biso   1.000  C 
  C3       1.0000 0.22532  0.45343  0.58245  Biso   1.000  C 
  C4       1.0000 0.09618  0.20555  0.38588  Biso   1.000  C 
  C5       1.0000 0.90585  0.20649  0.09866  Biso   1.000  C 
  C6       1.0000 0.80755  0.78480  0.47410  Biso   1.000  C 
  C7       1.0000 0.36587  0.76372  0.96249  Biso   1.000  C 
  C8       1.0000 0.27680  0.08937  0.40257  Biso   1.000  C 
  C9       1.0000 0.10782  0.37891  0.65886  Biso   1.000  C 
  C10      1.0000 0.22179  0.96467  0.92074  Biso   1.000  C 
  C11      1.0000 0.22535  0.58956  0.08255  Biso   1.000  C 
  C12      1.0000 0.40593  0.33796  0.59859  Biso   1.000  C 
  C13      1.0000 0.30746  0.76000  0.97403  Biso   1.000  C 
  C14      1.0000 0.59638  0.70623  0.38590  Biso   1.000  C 
  C15      1.0000 0.59615  0.33898  0.88594  Biso   1.000  C 
  C16      1.0000 0.30737  0.28272  0.47393  Biso   1.000  C 
  C17      1.0000 0.36578  0.27904  0.46237  Biso   1.000  C 
  C18      1.0000 0.72162  0.46639  0.92069  Biso   1.000  C 
  C19      1.0000 0.89427  0.38015  0.82568  Biso   1.000  C 
  C20      1.0000 0.27694  0.95347  0.90259  Biso   1.000  C 
  C21      1.0000 0.77677  0.45534  0.90250  Biso   1.000  C 
  C22      1.0000 0.39437  0.87852  0.82578  Biso   1.000  C 
  C23      1.0000 0.09634  0.83843  0.88597  Biso   1.000  C 
  C24      1.0000 0.72545  0.95515  0.58258  Biso   1.000  C 
  C25      1.0000 0.28047  0.46441  0.56433  Biso   1.000  C 
  C26      1.0000 0.89440  0.66622  0.32571  Biso   1.000  C 
  C27      1.0000 0.77702  0.59138  0.40264  Biso   1.000  C 
  C28      1.0000 0.72187  0.58019  0.42071  Biso   1.000  C 
  C29      1.0000 0.63650  0.76540  0.52219  Biso   1.000  C 
  C30      1.0000 0.39427  0.16438  0.32569  Biso   1.000  C 
  C31      1.0000 0.69491  0.76187  0.51092  Biso   1.000  C 
  C32      1.0000 0.19483  0.78298  0.01106  Biso   1.000  C 
  C33      1.0000 0.78040  0.08029  0.06445  Biso   1.000  C 
  C34      1.0000 0.60774  0.16579  0.15907  Biso   1.000  C 
  C35      1.0000 0.10784  0.66487  0.15900  Biso   1.000  C 
  C36      1.0000 0.90615  0.83961  0.59863  Biso   1.000  C 
  C37      1.0000 0.86596  0.78104  0.46247  Biso   1.000  C 
  C38      1.0000 0.22165  0.07832  0.42077  Biso   1.000  C 
  C39      1.0000 0.60794  0.87986  0.65880  Biso   1.000  C 
  C40      1.0000 0.13642  0.77942  0.02241  Biso   1.000  C 
  C41      1.0000 0.86572  0.26563  0.96240  Biso   1.000  C 
  C42      1.0000 0.72525  0.09134  0.08259  Biso   1.000  C 
  C43      1.0000 0.63627  0.28059  0.02245  Biso   1.000  C 
  C44      1.0000 0.78061  0.96634  0.56453  Biso   1.000  C 
  C45      1.0000 0.40602  0.70490  0.09876  Biso   1.000  C 
  C46      1.0000 0.69469  0.28462  0.01106  Biso   1.000  C 
  C47      1.0000 0.13632  0.26414  0.52224  Biso   1.000  C 
  C48      1.0000 0.19474  0.26016  0.51097  Biso   1.000  C 
  H1       1.0000 0.87928  0.44915  0.69277  Biso   1.000  H 
  H2       1.0000 0.20550  0.60021  0.64982  Biso   1.000  H 
  H3       1.0000 0.70561  0.10184  0.64999  Biso   1.000  H 
  H4       1.0000 0.19960  0.11860  0.86654  Biso   1.000  H 
  H5       1.0000 0.30272  0.61816  0.61861  Biso   1.000  H 
  H6       1.0000 0.80283  0.12005  0.61897  Biso   1.000  H 
  H7       1.0000 0.62274  0.09723  0.29212  Biso   1.000  H 
  H8       1.0000 0.60006  0.42265  0.75185  Biso   1.000  H 
  H9       1.0000 0.10028  0.92210  0.75191  Biso   1.000  H 
  H10      1.0000 0.30270  0.42443  0.11864  Biso   1.000  H 
  H11      1.0000 0.90234  0.92327  0.73274  Biso   1.000  H 
  H12      1.0000 0.12283  0.44748  0.79189  Biso   1.000  H 
  H13      1.0000 0.69940  0.62019  0.86640  Biso   1.000  H 
  H14      1.0000 0.62291  0.94878  0.79174  Biso   1.000  H 
  H15      1.0000 0.29681  0.10027  0.83532  Biso   1.000  H 
  H16      1.0000 0.40205  0.42171  0.73263  Biso   1.000  H 
  H17      1.0000 0.12280  0.59604  0.29201  Biso   1.000  H 
  H18      1.0000 0.29663  0.94253  0.33528  Biso   1.000  H 
  H19      1.0000 0.70542  0.94452  0.14997  Biso   1.000  H 
  H20      1.0000 0.10004  0.12181  0.25183  Biso   1.000  H 
  H21      1.0000 0.79688  0.44457  0.33545  Biso   1.000  H 
  H22      1.0000 0.40217  0.62110  0.23283  Biso   1.000  H 
  H23      1.0000 0.37926  0.09543  0.19280  Biso   1.000  H 
  H24      1.0000 0.80264  0.92650  0.11870  Biso   1.000  H 
  H25      1.0000 0.20549  0.44280  0.14991  Biso   1.000  H 
  H26      1.0000 0.60028  0.62247  0.25188  Biso   1.000  H 
  H27      1.0000 0.90196  0.12273  0.23273  Biso   1.000  H 
  H28      1.0000 0.69966  0.42631  0.36649  Biso   1.000  H 
  H29      1.0000 0.87934  0.59753  0.19280  Biso   1.000  H 
  H30      1.0000 0.37935  0.94738  0.69285  Biso   1.000  H 
  H31      1.0000 0.79661  0.60214  0.83513  Biso   1.000  H 
  H32      1.0000 0.19941  0.92449  0.36663  Biso   1.000  H 
  N1       1.0000 0.05551  0.64807  0.10494  Biso   1.000  N 
  N2       1.0000 0.55560  0.89645  0.60491  Biso   1.000  N 
  N3       1.0000 0.44671  0.89557  0.87959  Biso   1.000  N 
  N4       1.0000 0.04801  0.28978  0.43415  Biso   1.000  N 
  N5       1.0000 0.45412  0.25413  0.55018  Biso   1.000  N 
  N6       1.0000 0.54816  0.78988  0.43421  Biso   1.000  N 
  N7       1.0000 0.94663  0.39676  0.87947  Biso   1.000  N 
  N8       1.0000 0.95407  0.29013  0.05022  Biso   1.000  N 
  N9       1.0000 0.95430  0.75532  0.55016  Biso   1.000  N 
  N10      1.0000 0.94674  0.64891  0.37944  Biso   1.000  N 
  N11      1.0000 0.05550  0.39615  0.60491  Biso   1.000  N 
  N12      1.0000 0.55543  0.14833  0.10499  Biso   1.000  N 
  N13      1.0000 0.44662  0.14758  0.37949  Biso   1.000  N 
  N14      1.0000 0.54797  0.25467  0.93414  Biso   1.000  N 
  N15      1.0000 0.04811  0.75462  0.93416  Biso   1.000  N 
  N16      1.0000 0.45420  0.78898  0.05033  Biso   1.000  N 
  Zn1      1.0000 0.50104  0.96211  0.24220  Biso   1.000  Zn
  Zn2      1.0000 0.00114  0.58200  0.74206  Biso   1.000  Zn
  Zn3      1.0000 0.00103  0.46267  0.24213  Biso   1.000  Zn
  Zn4      1.0000 0.50110  0.08146  0.74208  Biso   1.000  Zn
