data_image0
_cell_length_a       24.9282
_cell_length_b       7.27275
_cell_length_c       7.15955
_cell_angle_alpha    89.6351
_cell_angle_beta     91.4562
_cell_angle_gamma    90.0352

_symmetry_space_group_name_H-M    "P 1"
_symmetry_int_tables_number       1

loop_
  _symmetry_equiv_pos_as_xyz
  'x, y, z'

loop_
  _atom_site_label
  _atom_site_occupancy
  _atom_site_fract_x
  _atom_site_fract_y
  _atom_site_fract_z
  _atom_site_thermal_displace_type
  _atom_site_B_iso_or_equiv
  _atom_site_type_symbol
  C1       1.0000 0.28375  0.67049  0.11493  Biso   1.000  C 
  C2       1.0000 0.77369  0.66462  0.35529  Biso   1.000  C 
  C3       1.0000 0.71823  0.67153  0.37094  Biso   1.000  C 
  C4       1.0000 0.63608  0.80184  0.51634  Biso   1.000  C 
  C5       1.0000 0.86629  0.74283  0.46842  Biso   1.000  C 
  C6       1.0000 0.69436  0.77974  0.50828  Biso   1.000  C 
  C7       1.0000 0.72868  0.88014  0.62949  Biso   1.000  C 
  C8       1.0000 0.19420  0.76534  0.00713  Biso   1.000  C 
  C9       1.0000 0.78374  0.17071  0.11497  Biso   1.000  C 
  C10      1.0000 0.60637  0.16463  0.15973  Biso   1.000  C 
  C11      1.0000 0.10638  0.66443  0.15945  Biso   1.000  C 
  C12      1.0000 0.90489  0.76332  0.61353  Biso   1.000  C 
  C13      1.0000 0.60674  0.88115  0.66055  Biso   1.000  C 
  C14      1.0000 0.13590  0.74332  0.01441  Biso   1.000  C 
  C15      1.0000 0.78415  0.87316  0.61389  Biso   1.000  C 
  C16      1.0000 0.72824  0.16397  0.12957  Biso   1.000  C 
  C17      1.0000 0.63588  0.24357  0.01468  Biso   1.000  C 
  C18      1.0000 0.86619  0.30156  0.97006  Biso   1.000  C 
  C19      1.0000 0.40462  0.78112  0.11617  Biso   1.000  C 
  C20      1.0000 0.69418  0.26562  0.00733  Biso   1.000  C 
  C21      1.0000 0.19432  0.27937  0.50835  Biso   1.000  C 
  C22      1.0000 0.13604  0.30149  0.51626  Biso   1.000  C 
  C23      1.0000 0.89558  0.66330  0.32422  Biso   1.000  C 
  C24      1.0000 0.21823  0.17125  0.37101  Biso   1.000  C 
  C25      1.0000 0.90461  0.28115  0.11599  Biso   1.000  C 
  C26      1.0000 0.09751  0.76331  0.86836  Biso   1.000  C 
  C27      1.0000 0.80788  0.27987  0.97755  Biso   1.000  C 
  C28      1.0000 0.22862  0.37973  0.62969  Biso   1.000  C 
  C29      1.0000 0.09750  0.28115  0.37097  Biso   1.000  C 
  C30      1.0000 0.40486  0.26328  0.61383  Biso   1.000  C 
  C31      1.0000 0.80802  0.76501  0.47649  Biso   1.000  C 
  C32      1.0000 0.39555  0.16316  0.32455  Biso   1.000  C 
  C33      1.0000 0.28408  0.37284  0.61420  Biso   1.000  C 
  C34      1.0000 0.36622  0.80145  0.97018  Biso   1.000  C 
  C35      1.0000 0.27369  0.16439  0.35548  Biso   1.000  C 
  C36      1.0000 0.10667  0.38068  0.66048  Biso   1.000  C 
  C37      1.0000 0.21836  0.87457  0.86979  Biso   1.000  C 
  C38      1.0000 0.22825  0.66371  0.12944  Biso   1.000  C 
  C39      1.0000 0.59750  0.78131  0.37118  Biso   1.000  C 
  C40      1.0000 0.30791  0.77972  0.97758  Biso   1.000  C 
  C41      1.0000 0.77382  0.38155  0.85534  Biso   1.000  C 
  C42      1.0000 0.27386  0.88136  0.85532  Biso   1.000  C 
  C43      1.0000 0.89573  0.38041  0.82502  Biso   1.000  C 
  C44      1.0000 0.39577  0.88027  0.82515  Biso   1.000  C 
  C45      1.0000 0.36626  0.24269  0.46875  Biso   1.000  C 
  C46      1.0000 0.30799  0.26479  0.47680  Biso   1.000  C 
  C47      1.0000 0.71832  0.37482  0.86993  Biso   1.000  C 
  C48      1.0000 0.59747  0.26361  0.86868  Biso   1.000  C 
  H1       1.0000 0.79053  0.57565  0.24965  Biso   1.000  H 
  H2       1.0000 0.71115  0.07406  0.23509  Biso   1.000  H 
  H3       1.0000 0.21115  0.57377  0.23491  Biso   1.000  H 
  H4       1.0000 0.80854  0.08813  0.21115  Biso   1.000  H 
  H5       1.0000 0.39967  0.72997  0.25761  Biso   1.000  H 
  H6       1.0000 0.38212  0.12504  0.18471  Biso   1.000  H 
  H7       1.0000 0.11960  0.62691  0.30016  Biso   1.000  H 
  H8       1.0000 0.38254  0.91795  0.68448  Biso   1.000  H 
  H9       1.0000 0.29055  0.07545  0.24987  Biso   1.000  H 
  H10      1.0000 0.60226  0.72977  0.23046  Biso   1.000  H 
  H11      1.0000 0.89968  0.22991  0.25739  Biso   1.000  H 
  H12      1.0000 0.69322  0.58996  0.27550  Biso   1.000  H 
  H13      1.0000 0.19324  0.08970  0.27550  Biso   1.000  H 
  H14      1.0000 0.88215  0.62521  0.18435  Biso   1.000  H 
  H15      1.0000 0.79091  0.47146  0.74980  Biso   1.000  H 
  H16      1.0000 0.10228  0.22974  0.23022  Biso   1.000  H 
  H17      1.0000 0.88248  0.41818  0.68438  Biso   1.000  H 
  H18      1.0000 0.12004  0.41866  0.80044  Biso   1.000  H 
  H19      1.0000 0.71185  0.96910  0.73516  Biso   1.000  H 
  H20      1.0000 0.19356  0.95709  0.77357  Biso   1.000  H 
  H21      1.0000 0.61961  0.12712  0.30043  Biso   1.000  H 
  H22      1.0000 0.30908  0.45431  0.70980  Biso   1.000  H 
  H23      1.0000 0.80917  0.95466  0.70936  Biso   1.000  H 
  H24      1.0000 0.40016  0.31496  0.75451  Biso   1.000  H 
  H25      1.0000 0.21175  0.46865  0.73535  Biso   1.000  H 
  H26      1.0000 0.62013  0.91924  0.80045  Biso   1.000  H 
  H27      1.0000 0.29095  0.97130  0.74982  Biso   1.000  H 
  H28      1.0000 0.10244  0.81454  0.72694  Biso   1.000  H 
  H29      1.0000 0.30854  0.58793  0.21114  Biso   1.000  H 
  H30      1.0000 0.69351  0.45735  0.77375  Biso   1.000  H 
  H31      1.0000 0.90019  0.81497  0.75421  Biso   1.000  H 
  H32      1.0000 0.60239  0.31482  0.72726  Biso   1.000  H 
  N1       1.0000 0.95265  0.69480  0.56181  Biso   1.000  N 
  N2       1.0000 0.44666  0.13290  0.38228  Biso   1.000  N 
  N3       1.0000 0.45252  0.84910  0.06407  Biso   1.000  N 
  N4       1.0000 0.55533  0.13404  0.10172  Biso   1.000  N 
  N5       1.0000 0.05558  0.41095  0.60257  Biso   1.000  N 
  N6       1.0000 0.94668  0.63294  0.38199  Biso   1.000  N 
  N7       1.0000 0.04964  0.69507  0.92047  Biso   1.000  N 
  N8       1.0000 0.54961  0.19529  0.92079  Biso   1.000  N 
  N9       1.0000 0.55563  0.91133  0.60273  Biso   1.000  N 
  N10      1.0000 0.44683  0.91044  0.88317  Biso   1.000  N 
  N11      1.0000 0.05534  0.63388  0.10142  Biso   1.000  N 
  N12      1.0000 0.94680  0.41050  0.88298  Biso   1.000  N 
  N13      1.0000 0.54970  0.84954  0.42287  Biso   1.000  N 
  N14      1.0000 0.45263  0.19486  0.56207  Biso   1.000  N 
  N15      1.0000 0.95251  0.34909  0.06385  Biso   1.000  N 
  N16      1.0000 0.04969  0.34937  0.42261  Biso   1.000  N 
  Zn1      1.0000 0.50102  0.98672  0.24257  Biso   1.000  Zn
  Zn2      1.0000 0.00120  0.55722  0.74215  Biso   1.000  Zn
  Zn3      1.0000 0.00101  0.48674  0.24246  Biso   1.000  Zn
  Zn4      1.0000 0.50119  0.05733  0.74231  Biso   1.000  Zn
