data_image0
_cell_length_a       20.4447
_cell_length_b       17.308
_cell_length_c       6.71312
_cell_angle_alpha    90.1189
_cell_angle_beta     74.6885
_cell_angle_gamma    89.9977

_symmetry_space_group_name_H-M    "P 1"
_symmetry_int_tables_number       1

loop_
  _symmetry_equiv_pos_as_xyz
  'x, y, z'

loop_
  _atom_site_label
  _atom_site_occupancy
  _atom_site_fract_x
  _atom_site_fract_y
  _atom_site_fract_z
  _atom_site_thermal_displace_type
  _atom_site_B_iso_or_equiv
  _atom_site_type_symbol
  C1       1.0000 0.27773  0.77448  0.16230  Biso   1.000  C 
  C2       1.0000 0.77683  0.72355  0.32639  Biso   1.000  C 
  C3       1.0000 0.72485  0.77476  0.32178  Biso   1.000  C 
  C4       1.0000 0.64291  0.87889  0.48434  Biso   1.000  C 
  C5       1.0000 0.85903  0.66586  0.50126  Biso   1.000  C 
  C6       1.0000 0.69757  0.82494  0.48826  Biso   1.000  C 
  C7       1.0000 0.72503  0.82113  0.65953  Biso   1.000  C 
  C8       1.0000 0.19783  0.71959  0.98747  Biso   1.000  C 
  C9       1.0000 0.77776  0.27442  0.16232  Biso   1.000  C 
  C10      1.0000 0.61980  0.10301  0.11701  Biso   1.000  C 
  C11      1.0000 0.11977  0.60305  0.11703  Biso   1.000  C 
  C12      1.0000 0.90116  0.66429  0.63653  Biso   1.000  C 
  C13      1.0000 0.61956  0.94177  0.61744  Biso   1.000  C 
  C14      1.0000 0.14300  0.66580  0.98413  Biso   1.000  C 
  C15      1.0000 0.77703  0.76994  0.66412  Biso   1.000  C 
  C16      1.0000 0.72568  0.22332  0.15806  Biso   1.000  C 
  C17      1.0000 0.64302  0.16577  0.98414  Biso   1.000  C 
  C18      1.0000 0.85942  0.37856  0.99997  Biso   1.000  C 
  C19      1.0000 0.40167  0.88022  0.13475  Biso   1.000  C 
  C20      1.0000 0.69786  0.21956  0.98749  Biso   1.000  C 
  C21      1.0000 0.19769  0.32509  0.48820  Biso   1.000  C 
  C22      1.0000 0.14300  0.37901  0.48426  Biso   1.000  C 
  C23      1.0000 0.88246  0.60313  0.36768  Biso   1.000  C 
  C24      1.0000 0.22498  0.27492  0.32170  Biso   1.000  C 
  C25      1.0000 0.90172  0.38016  0.13476  Biso   1.000  C 
  C26      1.0000 0.10060  0.66438  0.84963  Biso   1.000  C 
  C27      1.0000 0.80478  0.32457  0.99616  Biso   1.000  C 
  C28      1.0000 0.22513  0.32127  0.65950  Biso   1.000  C 
  C29      1.0000 0.10091  0.38047  0.34887  Biso   1.000  C 
  C30      1.0000 0.40124  0.16436  0.63652  Biso   1.000  C 
  C31      1.0000 0.80432  0.71978  0.49760  Biso   1.000  C 
  C32      1.0000 0.38248  0.10320  0.36774  Biso   1.000  C 
  C33      1.0000 0.27711  0.27006  0.66415  Biso   1.000  C 
  C34      1.0000 0.35938  0.87863  0.99994  Biso   1.000  C 
  C35      1.0000 0.27694  0.22369  0.32637  Biso   1.000  C 
  C36      1.0000 0.11961  0.44185  0.61744  Biso   1.000  C 
  C37      1.0000 0.22492  0.76964  0.82114  Biso   1.000  C 
  C38      1.0000 0.22565  0.72336  0.15804  Biso   1.000  C 
  C39      1.0000 0.60081  0.88038  0.34895  Biso   1.000  C 
  C40      1.0000 0.30474  0.82463  0.99614  Biso   1.000  C 
  C41      1.0000 0.77702  0.32075  0.82547  Biso   1.000  C 
  C42      1.0000 0.27698  0.82079  0.82544  Biso   1.000  C 
  C43      1.0000 0.88248  0.44146  0.86742  Biso   1.000  C 
  C44      1.0000 0.38245  0.94153  0.86740  Biso   1.000  C 
  C45      1.0000 0.35910  0.16595  0.50131  Biso   1.000  C 
  C46      1.0000 0.30440  0.21989  0.49764  Biso   1.000  C 
  C47      1.0000 0.72494  0.26962  0.82117  Biso   1.000  C 
  C48      1.0000 0.60062  0.16435  0.84963  Biso   1.000  C 
  H1       1.0000 0.79694  0.68607  0.19332  Biso   1.000  H 
  H2       1.0000 0.70572  0.18592  0.29094  Biso   1.000  H 
  H3       1.0000 0.20571  0.68596  0.29091  Biso   1.000  H 
  H4       1.0000 0.79741  0.27595  0.29847  Biso   1.000  H 
  H5       1.0000 0.40271  0.84239  0.26277  Biso   1.000  H 
  H6       1.0000 0.36503  0.08173  0.23850  Biso   1.000  H 
  H7       1.0000 0.13741  0.58148  0.24557  Biso   1.000  H 
  H8       1.0000 0.36479  0.96307  0.73885  Biso   1.000  H 
  H9       1.0000 0.29707  0.18623  0.19328  Biso   1.000  H 
  H10      1.0000 0.59998  0.84248  0.22047  Biso   1.000  H 
  H11      1.0000 0.90276  0.34233  0.26278  Biso   1.000  H 
  H12      1.0000 0.70545  0.77631  0.18517  Biso   1.000  H 
  H13      1.0000 0.20562  0.27649  0.18505  Biso   1.000  H 
  H14      1.0000 0.86504  0.58164  0.23843  Biso   1.000  H 
  H15      1.0000 0.79699  0.35812  0.69254  Biso   1.000  H 
  H16      1.0000 0.10011  0.34257  0.22037  Biso   1.000  H 
  H17      1.0000 0.86483  0.46300  0.73885  Biso   1.000  H 
  H18      1.0000 0.13702  0.46346  0.74662  Biso   1.000  H 
  H19      1.0000 0.70488  0.85857  0.79266  Biso   1.000  H 
  H20      1.0000 0.20531  0.76806  0.68492  Biso   1.000  H 
  H21      1.0000 0.63743  0.08143  0.24556  Biso   1.000  H 
  H22      1.0000 0.29647  0.26850  0.80084  Biso   1.000  H 
  H23      1.0000 0.79641  0.76839  0.80077  Biso   1.000  H 
  H24      1.0000 0.40206  0.20212  0.76528  Biso   1.000  H 
  H25      1.0000 0.20497  0.35870  0.79263  Biso   1.000  H 
  H26      1.0000 0.63699  0.96336  0.74656  Biso   1.000  H 
  H27      1.0000 0.29696  0.85815  0.69250  Biso   1.000  H 
  H28      1.0000 0.09959  0.70224  0.72163  Biso   1.000  H 
  H29      1.0000 0.29737  0.77603  0.29846  Biso   1.000  H 
  H30      1.0000 0.70533  0.26805  0.68497  Biso   1.000  H 
  H31      1.0000 0.90194  0.70207  0.76529  Biso   1.000  H 
  H32      1.0000 0.59962  0.20221  0.72164  Biso   1.000  H 
  N1       1.0000 0.94605  0.60572  0.58516  Biso   1.000  N 
  N2       1.0000 0.43407  0.06757  0.42007  Biso   1.000  N 
  N3       1.0000 0.44632  0.93896  0.08410  Biso   1.000  N 
  N4       1.0000 0.56807  0.06751  0.06486  Biso   1.000  N 
  N5       1.0000 0.06805  0.47742  0.56474  Biso   1.000  N 
  N6       1.0000 0.93406  0.56752  0.42007  Biso   1.000  N 
  N7       1.0000 0.05575  0.60584  0.90075  Biso   1.000  N 
  N8       1.0000 0.55578  0.10581  0.90071  Biso   1.000  N 
  N9       1.0000 0.56802  0.97738  0.56474  Biso   1.000  N 
  N10      1.0000 0.43401  0.97725  0.91997  Biso   1.000  N 
  N11      1.0000 0.06804  0.56754  0.06489  Biso   1.000  N 
  N12      1.0000 0.93404  0.47719  0.91999  Biso   1.000  N 
  N13      1.0000 0.55600  0.93905  0.39988  Biso   1.000  N 
  N14      1.0000 0.44611  0.10577  0.58511  Biso   1.000  N 
  N15      1.0000 0.94636  0.43891  0.08412  Biso   1.000  N 
  N16      1.0000 0.05605  0.43909  0.39983  Biso   1.000  N 
  Zn1      1.0000 0.50115  0.99348  0.24207  Biso   1.000  Zn
  Zn2      1.0000 0.00088  0.55131  0.74284  Biso   1.000  Zn
  Zn3      1.0000 0.00117  0.49347  0.24210  Biso   1.000  Zn
  Zn4      1.0000 0.50090  0.05130  0.74279  Biso   1.000  Zn
