data_image0
_cell_length_a       24.321
_cell_length_b       10.3353
_cell_length_c       6.8062
_cell_angle_alpha    89.973
_cell_angle_beta     86.0907
_cell_angle_gamma    89.9982

_symmetry_space_group_name_H-M    "P 1"
_symmetry_int_tables_number       1

loop_
  _symmetry_equiv_pos_as_xyz
  'x, y, z'

loop_
  _atom_site_label
  _atom_site_occupancy
  _atom_site_fract_x
  _atom_site_fract_y
  _atom_site_fract_z
  _atom_site_thermal_displace_type
  _atom_site_B_iso_or_equiv
  _atom_site_type_symbol
  C1       1.0000 0.28143  0.75274  0.15569  Biso   1.000  C 
  C2       1.0000 0.77625  0.71976  0.32092  Biso   1.000  C 
  C3       1.0000 0.72083  0.75357  0.32873  Biso   1.000  C 
  C4       1.0000 0.63673  0.84830  0.50619  Biso   1.000  C 
  C5       1.0000 0.90522  0.71875  0.61598  Biso   1.000  C 
  C6       1.0000 0.69440  0.80765  0.49987  Biso   1.000  C 
  C7       1.0000 0.90500  0.32579  0.11647  Biso   1.000  C 
  C8       1.0000 0.72627  0.82626  0.66264  Biso   1.000  C 
  C9       1.0000 0.19419  0.73710  0.00049  Biso   1.000  C 
  C10      1.0000 0.78141  0.25284  0.15572  Biso   1.000  C 
  C11      1.0000 0.60885  0.11530  0.14721  Biso   1.000  C 
  C12      1.0000 0.10887  0.61522  0.14717  Biso   1.000  C 
  C13      1.0000 0.13657  0.69617  0.00653  Biso   1.000  C 
  C14      1.0000 0.60899  0.92904  0.64692  Biso   1.000  C 
  C15      1.0000 0.19439  0.30761  0.49990  Biso   1.000  C 
  C16      1.0000 0.69417  0.23719  0.00051  Biso   1.000  C 
  C17      1.0000 0.40501  0.82576  0.11646  Biso   1.000  C 
  C18      1.0000 0.13672  0.34825  0.50621  Biso   1.000  C 
  C19      1.0000 0.63655  0.19624  0.00655  Biso   1.000  C 
  C20      1.0000 0.72601  0.21881  0.16345  Biso   1.000  C 
  C21      1.0000 0.86547  0.34795  0.97867  Biso   1.000  C 
  C22      1.0000 0.78168  0.79245  0.65483  Biso   1.000  C 
  C23      1.0000 0.89336  0.61593  0.33766  Biso   1.000  C 
  C24      1.0000 0.86569  0.69702  0.47803  Biso   1.000  C 
  C25      1.0000 0.40522  0.21875  0.61597  Biso   1.000  C 
  C26      1.0000 0.09700  0.71834  0.86893  Biso   1.000  C 
  C27      1.0000 0.80785  0.30696  0.98458  Biso   1.000  C 
  C28      1.0000 0.22626  0.32623  0.66267  Biso   1.000  C 
  C29      1.0000 0.09711  0.32590  0.36886  Biso   1.000  C 
  C30      1.0000 0.22603  0.71870  0.16342  Biso   1.000  C 
  C31      1.0000 0.80810  0.73824  0.48379  Biso   1.000  C 
  C32      1.0000 0.22082  0.25353  0.32877  Biso   1.000  C 
  C33      1.0000 0.39336  0.11592  0.33767  Biso   1.000  C 
  C34      1.0000 0.28168  0.29244  0.65485  Biso   1.000  C 
  C35      1.0000 0.36548  0.84792  0.97866  Biso   1.000  C 
  C36      1.0000 0.27624  0.21974  0.32095  Biso   1.000  C 
  C37      1.0000 0.10898  0.42901  0.64694  Biso   1.000  C 
  C38      1.0000 0.22063  0.79127  0.82933  Biso   1.000  C 
  C39      1.0000 0.30787  0.80690  0.98457  Biso   1.000  C 
  C40      1.0000 0.59712  0.82595  0.36883  Biso   1.000  C 
  C41      1.0000 0.72061  0.29134  0.82934  Biso   1.000  C 
  C42      1.0000 0.30810  0.23824  0.48381  Biso   1.000  C 
  C43      1.0000 0.36569  0.19702  0.47804  Biso   1.000  C 
  C44      1.0000 0.59698  0.21838  0.86893  Biso   1.000  C 
  C45      1.0000 0.89323  0.42885  0.83810  Biso   1.000  C 
  C46      1.0000 0.27603  0.82525  0.82158  Biso   1.000  C 
  C47      1.0000 0.39324  0.92883  0.83810  Biso   1.000  C 
  C48      1.0000 0.77602  0.32530  0.82158  Biso   1.000  C 
  H1       1.0000 0.20712  0.67733  0.29923  Biso   1.000  H 
  H2       1.0000 0.10007  0.26962  0.23386  Biso   1.000  H 
  H3       1.0000 0.80437  0.23844  0.28624  Biso   1.000  H 
  H4       1.0000 0.12351  0.57258  0.27975  Biso   1.000  H 
  H5       1.0000 0.40201  0.76941  0.25150  Biso   1.000  H 
  H6       1.0000 0.37874  0.07345  0.20496  Biso   1.000  H 
  H7       1.0000 0.70710  0.17745  0.29927  Biso   1.000  H 
  H8       1.0000 0.19783  0.23884  0.19841  Biso   1.000  H 
  H9       1.0000 0.79492  0.36664  0.68575  Biso   1.000  H 
  H10      1.0000 0.29516  0.17836  0.18522  Biso   1.000  H 
  H11      1.0000 0.60008  0.76967  0.23382  Biso   1.000  H 
  H12      1.0000 0.90199  0.26944  0.25151  Biso   1.000  H 
  H13      1.0000 0.37866  0.97149  0.70542  Biso   1.000  H 
  H14      1.0000 0.69784  0.73890  0.19836  Biso   1.000  H 
  H15      1.0000 0.87874  0.57348  0.20494  Biso   1.000  H 
  H16      1.0000 0.79516  0.67837  0.18519  Biso   1.000  H 
  H17      1.0000 0.70736  0.86757  0.79844  Biso   1.000  H 
  H18      1.0000 0.90225  0.77501  0.75103  Biso   1.000  H 
  H19      1.0000 0.19766  0.80573  0.69884  Biso   1.000  H 
  H20      1.0000 0.62350  0.07270  0.27982  Biso   1.000  H 
  H21      1.0000 0.20735  0.36753  0.79847  Biso   1.000  H 
  H22      1.0000 0.30467  0.30699  0.78526  Biso   1.000  H 
  H23      1.0000 0.80468  0.80699  0.78524  Biso   1.000  H 
  H24      1.0000 0.87866  0.47150  0.70540  Biso   1.000  H 
  H25      1.0000 0.40225  0.27502  0.75102  Biso   1.000  H 
  H26      1.0000 0.12361  0.47165  0.77948  Biso   1.000  H 
  H27      1.0000 0.62362  0.97168  0.77947  Biso   1.000  H 
  H28      1.0000 0.29494  0.86661  0.68576  Biso   1.000  H 
  H29      1.0000 0.09996  0.77467  0.73388  Biso   1.000  H 
  H30      1.0000 0.59995  0.27469  0.73387  Biso   1.000  H 
  H31      1.0000 0.30439  0.73833  0.28621  Biso   1.000  H 
  H32      1.0000 0.69764  0.30578  0.69885  Biso   1.000  H 
  N1       1.0000 0.45216  0.88959  0.06242  Biso   1.000  N 
  N2       1.0000 0.55758  0.09004  0.09477  Biso   1.000  N 
  N3       1.0000 0.54987  0.15446  0.92312  Biso   1.000  N 
  N4       1.0000 0.05766  0.45399  0.59475  Biso   1.000  N 
  N5       1.0000 0.94456  0.59025  0.39051  Biso   1.000  N 
  N6       1.0000 0.04988  0.65444  0.92312  Biso   1.000  N 
  N7       1.0000 0.95227  0.65449  0.56220  Biso   1.000  N 
  N8       1.0000 0.44455  0.09024  0.39051  Biso   1.000  N 
  N9       1.0000 0.04994  0.38956  0.42320  Biso   1.000  N 
  N10      1.0000 0.95215  0.38960  0.06242  Biso   1.000  N 
  N11      1.0000 0.44451  0.95397  0.89070  Biso   1.000  N 
  N12      1.0000 0.05759  0.58999  0.09475  Biso   1.000  N 
  N13      1.0000 0.94450  0.45398  0.89070  Biso   1.000  N 
  N14      1.0000 0.54995  0.88960  0.42318  Biso   1.000  N 
  N15      1.0000 0.55767  0.95402  0.59472  Biso   1.000  N 
  N16      1.0000 0.45226  0.15449  0.56218  Biso   1.000  N 
  Zn1      1.0000 0.00101  0.47848  0.24284  Biso   1.000  Zn
  Zn2      1.0000 0.50102  0.97849  0.24283  Biso   1.000  Zn
  Zn3      1.0000 0.00110  0.56534  0.74279  Biso   1.000  Zn
  Zn4      1.0000 0.50110  0.06534  0.74278  Biso   1.000  Zn
