data_image0
_cell_length_a       24.8965
_cell_length_b       5.46327
_cell_length_c       7.1862
_cell_angle_alpha    90.0461
_cell_angle_beta     93.5854
_cell_angle_gamma    89.9024

_symmetry_space_group_name_H-M    "P 1"
_symmetry_int_tables_number       1

loop_
  _symmetry_equiv_pos_as_xyz
  'x, y, z'

loop_
  _atom_site_label
  _atom_site_occupancy
  _atom_site_fract_x
  _atom_site_fract_y
  _atom_site_fract_z
  _atom_site_thermal_displace_type
  _atom_site_B_iso_or_equiv
  _atom_site_type_symbol
  C1       1.0000 0.28069  0.57283  0.06386  Biso   1.000  C 
  C2       1.0000 0.80719  0.26066  0.97297  Biso   1.000  C 
  C3       1.0000 0.22541  0.45897  0.58301  Biso   1.000  C 
  C4       1.0000 0.09602  0.19461  0.38940  Biso   1.000  C 
  C5       1.0000 0.90617  0.19598  0.09544  Biso   1.000  C 
  C6       1.0000 0.80747  0.78670  0.47285  Biso   1.000  C 
  C7       1.0000 0.36563  0.76160  0.95997  Biso   1.000  C 
  C8       1.0000 0.27685  0.08510  0.40164  Biso   1.000  C 
  C9       1.0000 0.10833  0.38146  0.66091  Biso   1.000  C 
  C10      1.0000 0.22146  0.97088  0.92082  Biso   1.000  C 
  C11      1.0000 0.22559  0.58499  0.08329  Biso   1.000  C 
  C12      1.0000 0.40626  0.34899  0.59521  Biso   1.000  C 
  C13      1.0000 0.30729  0.75937  0.97257  Biso   1.000  C 
  C14      1.0000 0.59620  0.69519  0.38917  Biso   1.000  C 
  C15      1.0000 0.59572  0.34904  0.88934  Biso   1.000  C 
  C16      1.0000 0.30733  0.28507  0.47254  Biso   1.000  C 
  C17      1.0000 0.36568  0.28298  0.45987  Biso   1.000  C 
  C18      1.0000 0.72137  0.47222  0.92096  Biso   1.000  C 
  C19      1.0000 0.89370  0.38380  0.82451  Biso   1.000  C 
  C20      1.0000 0.27655  0.95873  0.90134  Biso   1.000  C 
  C21      1.0000 0.77648  0.46007  0.90172  Biso   1.000  C 
  C22      1.0000 0.39379  0.88259  0.82405  Biso   1.000  C 
  C23      1.0000 0.09585  0.84850  0.88969  Biso   1.000  C 
  C24      1.0000 0.72550  0.96020  0.58319  Biso   1.000  C 
  C25      1.0000 0.28049  0.47167  0.56357  Biso   1.000  C 
  C26      1.0000 0.89401  0.66347  0.32412  Biso   1.000  C 
  C27      1.0000 0.77704  0.58667  0.40176  Biso   1.000  C 
  C28      1.0000 0.72195  0.57375  0.42102  Biso   1.000  C 
  C29      1.0000 0.63672  0.76168  0.52458  Biso   1.000  C 
  C30      1.0000 0.39389  0.16188  0.32380  Biso   1.000  C 
  C31      1.0000 0.69507  0.76017  0.51207  Biso   1.000  C 
  C32      1.0000 0.19486  0.78437  0.01209  Biso   1.000  C 
  C33      1.0000 0.78056  0.07409  0.06409  Biso   1.000  C 
  C34      1.0000 0.60830  0.16170  0.16043  Biso   1.000  C 
  C35      1.0000 0.10840  0.66090  0.16070  Biso   1.000  C 
  C36      1.0000 0.90642  0.85017  0.59567  Biso   1.000  C 
  C37      1.0000 0.86583  0.78457  0.46027  Biso   1.000  C 
  C38      1.0000 0.22177  0.07237  0.42110  Biso   1.000  C 
  C39      1.0000 0.60839  0.88210  0.66069  Biso   1.000  C 
  C40      1.0000 0.13651  0.78208  0.02473  Biso   1.000  C 
  C41      1.0000 0.86554  0.26284  0.96041  Biso   1.000  C 
  C42      1.0000 0.72546  0.08621  0.08329  Biso   1.000  C 
  C43      1.0000 0.63639  0.28305  0.02448  Biso   1.000  C 
  C44      1.0000 0.78059  0.97313  0.56390  Biso   1.000  C 
  C45      1.0000 0.40627  0.69494  0.09505  Biso   1.000  C 
  C46      1.0000 0.69474  0.28562  0.01203  Biso   1.000  C 
  C47      1.0000 0.13658  0.26081  0.52474  Biso   1.000  C 
  C48      1.0000 0.19493  0.25897  0.51209  Biso   1.000  C 
  H1       1.0000 0.87827  0.45891  0.69228  Biso   1.000  H 
  H2       1.0000 0.20557  0.60952  0.65098  Biso   1.000  H 
  H3       1.0000 0.70561  0.11061  0.65120  Biso   1.000  H 
  H4       1.0000 0.19899  0.12927  0.86702  Biso   1.000  H 
  H5       1.0000 0.30275  0.63057  0.61705  Biso   1.000  H 
  H6       1.0000 0.80281  0.13204  0.61759  Biso   1.000  H 
  H7       1.0000 0.62377  0.08711  0.29280  Biso   1.000  H 
  H8       1.0000 0.59920  0.43765  0.75550  Biso   1.000  H 
  H9       1.0000 0.09934  0.93710  0.75585  Biso   1.000  H 
  H10      1.0000 0.30315  0.41438  0.11756  Biso   1.000  H 
  H11      1.0000 0.90286  0.93846  0.72972  Biso   1.000  H 
  H12      1.0000 0.12369  0.45602  0.79344  Biso   1.000  H 
  H13      1.0000 0.69892  0.63064  0.86710  Biso   1.000  H 
  H14      1.0000 0.62370  0.95682  0.79322  Biso   1.000  H 
  H15      1.0000 0.29619  0.10928  0.83323  Biso   1.000  H 
  H16      1.0000 0.40269  0.43735  0.72922  Biso   1.000  H 
  H17      1.0000 0.12387  0.58606  0.29299  Biso   1.000  H 
  H18      1.0000 0.29670  0.93448  0.33382  Biso   1.000  H 
  H19      1.0000 0.70579  0.93564  0.15128  Biso   1.000  H 
  H20      1.0000 0.09963  0.10640  0.25534  Biso   1.000  H 
  H21      1.0000 0.79692  0.43621  0.33390  Biso   1.000  H 
  H22      1.0000 0.40274  0.60650  0.22892  Biso   1.000  H 
  H23      1.0000 0.37850  0.08722  0.19134  Biso   1.000  H 
  H24      1.0000 0.80301  0.91563  0.11786  Biso   1.000  H 
  H25      1.0000 0.20595  0.43443  0.15138  Biso   1.000  H 
  H26      1.0000 0.59987  0.60694  0.25517  Biso   1.000  H 
  H27      1.0000 0.90263  0.10750  0.22929  Biso   1.000  H 
  H28      1.0000 0.69974  0.41476  0.36744  Biso   1.000  H 
  H29      1.0000 0.87861  0.58911  0.19158  Biso   1.000  H 
  H30      1.0000 0.37835  0.95755  0.69178  Biso   1.000  H 
  H31      1.0000 0.79614  0.61062  0.83369  Biso   1.000  H 
  H32      1.0000 0.19953  0.91341  0.36767  Biso   1.000  H 
  N1       1.0000 0.05573  0.64763  0.10757  Biso   1.000  N 
  N2       1.0000 0.55573  0.89485  0.60731  Biso   1.000  N 
  N3       1.0000 0.44646  0.89545  0.87720  Biso   1.000  N 
  N4       1.0000 0.04774  0.27985  0.43777  Biso   1.000  N 
  N5       1.0000 0.45450  0.26315  0.54695  Biso   1.000  N 
  N6       1.0000 0.54788  0.78005  0.43743  Biso   1.000  N 
  N7       1.0000 0.94639  0.39643  0.87762  Biso   1.000  N 
  N8       1.0000 0.95439  0.28110  0.04716  Biso   1.000  N 
  N9       1.0000 0.95463  0.76410  0.54738  Biso   1.000  N 
  N10      1.0000 0.94666  0.64943  0.37751  Biso   1.000  N 
  N11      1.0000 0.05566  0.39461  0.60766  Biso   1.000  N 
  N12      1.0000 0.55564  0.14793  0.10719  Biso   1.000  N 
  N13      1.0000 0.44655  0.14821  0.37716  Biso   1.000  N 
  N14      1.0000 0.54757  0.26300  0.93758  Biso   1.000  N 
  N15      1.0000 0.04767  0.76288  0.93802  Biso   1.000  N 
  N16      1.0000 0.45448  0.78025  0.04679  Biso   1.000  N 
  Zn1      1.0000 0.50115  0.95683  0.24230  Biso   1.000  Zn
  Zn2      1.0000 0.00109  0.58625  0.74254  Biso   1.000  Zn
  Zn3      1.0000 0.00112  0.45730  0.24263  Biso   1.000  Zn
  Zn4      1.0000 0.50107  0.08580  0.74208  Biso   1.000  Zn
