data_image0
_cell_length_a       24.9486
_cell_length_b       6.08898
_cell_length_c       7.25584
_cell_angle_alpha    90.004
_cell_angle_beta     92.4426
_cell_angle_gamma    89.9365

_symmetry_space_group_name_H-M    "P 1"
_symmetry_int_tables_number       1

loop_
  _symmetry_equiv_pos_as_xyz
  'x, y, z'

loop_
  _atom_site_label
  _atom_site_occupancy
  _atom_site_fract_x
  _atom_site_fract_y
  _atom_site_fract_z
  _atom_site_thermal_displace_type
  _atom_site_B_iso_or_equiv
  _atom_site_type_symbol
  C1       1.0000 0.28194  0.60492  0.07748  Biso   1.000  C 
  C2       1.0000 0.77618  0.61318  0.39010  Biso   1.000  C 
  C3       1.0000 0.72086  0.60711  0.40677  Biso   1.000  C 
  C4       1.0000 0.63616  0.77603  0.51902  Biso   1.000  C 
  C5       1.0000 0.22039  0.10430  0.40757  Biso   1.000  C 
  C6       1.0000 0.69466  0.76698  0.50958  Biso   1.000  C 
  C7       1.0000 0.19484  0.77683  0.01058  Biso   1.000  C 
  C8       1.0000 0.78153  0.10798  0.07857  Biso   1.000  C 
  C9       1.0000 0.60697  0.16858  0.15743  Biso   1.000  C 
  C10      1.0000 0.10742  0.66611  0.15915  Biso   1.000  C 
  C11      1.0000 0.90572  0.81499  0.60475  Biso   1.000  C 
  C12      1.0000 0.86623  0.77059  0.46567  Biso   1.000  C 
  C13      1.0000 0.13636  0.76784  0.02075  Biso   1.000  C 
  C14      1.0000 0.60709  0.87723  0.65749  Biso   1.000  C 
  C15      1.0000 0.13591  0.27393  0.52099  Biso   1.000  C 
  C16      1.0000 0.69447  0.27937  0.00965  Biso   1.000  C 
  C17      1.0000 0.40598  0.72963  0.10230  Biso   1.000  C 
  C18      1.0000 0.19438  0.26451  0.51064  Biso   1.000  C 
  C19      1.0000 0.63596  0.27009  0.01905  Biso   1.000  C 
  C20      1.0000 0.72621  0.11363  0.09525  Biso   1.000  C 
  C21      1.0000 0.78153  0.93912  0.57843  Biso   1.000  C 
  C22      1.0000 0.86607  0.27702  0.96590  Biso   1.000  C 
  C23      1.0000 0.89526  0.66943  0.32705  Biso   1.000  C 
  C24      1.0000 0.39482  0.16601  0.32533  Biso   1.000  C 
  C25      1.0000 0.72622  0.93301  0.59515  Biso   1.000  C 
  C26      1.0000 0.09679  0.81332  0.88206  Biso   1.000  C 
  C27      1.0000 0.80758  0.26790  0.97560  Biso   1.000  C 
  C28      1.0000 0.22609  0.43076  0.59521  Biso   1.000  C 
  C29      1.0000 0.09633  0.22972  0.38215  Biso   1.000  C 
  C30      1.0000 0.90560  0.23237  0.10488  Biso   1.000  C 
  C31      1.0000 0.80774  0.77938  0.47546  Biso   1.000  C 
  C32      1.0000 0.28136  0.43666  0.57738  Biso   1.000  C 
  C33      1.0000 0.36632  0.77435  0.96376  Biso   1.000  C 
  C34      1.0000 0.27566  0.11017  0.38976  Biso   1.000  C 
  C35      1.0000 0.10703  0.37604  0.65950  Biso   1.000  C 
  C36      1.0000 0.22076  0.93714  0.90764  Biso   1.000  C 
  C37      1.0000 0.22665  0.61071  0.09526  Biso   1.000  C 
  C38      1.0000 0.40541  0.31342  0.60230  Biso   1.000  C 
  C39      1.0000 0.30785  0.76509  0.97432  Biso   1.000  C 
  C40      1.0000 0.59671  0.73171  0.37976  Biso   1.000  C 
  C41      1.0000 0.59647  0.31445  0.87984  Biso   1.000  C 
  C42      1.0000 0.30737  0.27645  0.47430  Biso   1.000  C 
  C43      1.0000 0.36584  0.26767  0.46380  Biso   1.000  C 
  C44      1.0000 0.72053  0.43939  0.90683  Biso   1.000  C 
  C45      1.0000 0.89503  0.37841  0.82737  Biso   1.000  C 
  C46      1.0000 0.27603  0.93138  0.88989  Biso   1.000  C 
  C47      1.0000 0.77585  0.43379  0.89018  Biso   1.000  C 
  C48      1.0000 0.39510  0.87670  0.82528  Biso   1.000  C 
  H1       1.0000 0.10052  0.15641  0.24690  Biso   1.000  H 
  H2       1.0000 0.12181  0.60793  0.29366  Biso   1.000  H 
  H3       1.0000 0.79530  0.48324  0.31304  Biso   1.000  H 
  H4       1.0000 0.20778  0.48060  0.17268  Biso   1.000  H 
  H5       1.0000 0.40188  0.65600  0.23745  Biso   1.000  H 
  H6       1.0000 0.38043  0.10760  0.19094  Biso   1.000  H 
  H7       1.0000 0.80465  0.97579  0.14477  Biso   1.000  H 
  H8       1.0000 0.19726  0.97180  0.34218  Biso   1.000  H 
  H9       1.0000 0.60104  0.65896  0.24438  Biso   1.000  H 
  H10      1.0000 0.90137  0.15927  0.24015  Biso   1.000  H 
  H11      1.0000 0.69787  0.47470  0.34067  Biso   1.000  H 
  H12      1.0000 0.88092  0.61211  0.19227  Biso   1.000  H 
  H13      1.0000 0.38059  0.93457  0.69082  Biso   1.000  H 
  H14      1.0000 0.79482  0.56385  0.81303  Biso   1.000  H 
  H15      1.0000 0.29463  0.98005  0.31242  Biso   1.000  H 
  H16      1.0000 0.70724  0.98366  0.17253  Biso   1.000  H 
  H17      1.0000 0.40116  0.38704  0.73740  Biso   1.000  H 
  H18      1.0000 0.62137  0.93443  0.79239  Biso   1.000  H 
  H19      1.0000 0.88066  0.43592  0.69264  Biso   1.000  H 
  H20      1.0000 0.70709  0.06283  0.67235  Biso   1.000  H 
  H21      1.0000 0.19757  0.06983  0.84246  Biso   1.000  H 
  H22      1.0000 0.30445  0.56935  0.64264  Biso   1.000  H 
  H23      1.0000 0.80452  0.07151  0.64459  Biso   1.000  H 
  H24      1.0000 0.20711  0.56092  0.67244  Biso   1.000  H 
  H25      1.0000 0.62131  0.11115  0.29222  Biso   1.000  H 
  H26      1.0000 0.29492  0.06166  0.81273  Biso   1.000  H 
  H27      1.0000 0.10100  0.88691  0.74695  Biso   1.000  H 
  H28      1.0000 0.30514  0.47249  0.14298  Biso   1.000  H 
  H29      1.0000 0.90141  0.88788  0.74009  Biso   1.000  H 
  H30      1.0000 0.60074  0.38763  0.74460  Biso   1.000  H 
  H31      1.0000 0.12145  0.43355  0.79414  Biso   1.000  H 
  H32      1.0000 0.69741  0.57166  0.84077  Biso   1.000  H 
  N1       1.0000 0.04867  0.73434  0.93081  Biso   1.000  N 
  N2       1.0000 0.54837  0.23502  0.92832  Biso   1.000  N 
  N3       1.0000 0.95387  0.73584  0.55603  Biso   1.000  N 
  N4       1.0000 0.44675  0.14406  0.38046  Biso   1.000  N 
  N5       1.0000 0.55513  0.14542  0.10170  Biso   1.000  N 
  N6       1.0000 0.05516  0.39966  0.60413  Biso   1.000  N 
  N7       1.0000 0.94713  0.64643  0.38258  Biso   1.000  N 
  N8       1.0000 0.45398  0.80967  0.05342  Biso   1.000  N 
  N9       1.0000 0.95371  0.31146  0.05611  Biso   1.000  N 
  N10      1.0000 0.05551  0.64395  0.10388  Biso   1.000  N 
  N11      1.0000 0.94690  0.40123  0.88283  Biso   1.000  N 
  N12      1.0000 0.54855  0.81089  0.42831  Biso   1.000  N 
  N13      1.0000 0.45358  0.23462  0.55345  Biso   1.000  N 
  N14      1.0000 0.04828  0.30978  0.43091  Biso   1.000  N 
  N15      1.0000 0.44699  0.90001  0.88038  Biso   1.000  N 
  N16      1.0000 0.55523  0.90027  0.60176  Biso   1.000  N 
  Zn1      1.0000 0.00110  0.57368  0.74336  Biso   1.000  Zn
  Zn2      1.0000 0.00117  0.47221  0.24336  Biso   1.000  Zn
  Zn3      1.0000 0.50106  0.97209  0.24098  Biso   1.000  Zn
  Zn4      1.0000 0.50103  0.07363  0.74087  Biso   1.000  Zn
