data_image0
_cell_length_a       19.8353
_cell_length_b       7.11725
_cell_length_c       6.66754
_cell_angle_alpha    90.0001
_cell_angle_beta     104.972
_cell_angle_gamma    89.9998

_symmetry_space_group_name_H-M    "P 1"
_symmetry_int_tables_number       1

loop_
  _symmetry_equiv_pos_as_xyz
  'x, y, z'

loop_
  _atom_site_label
  _atom_site_occupancy
  _atom_site_fract_x
  _atom_site_fract_y
  _atom_site_fract_z
  _atom_site_thermal_displace_type
  _atom_site_B_iso_or_equiv
  _atom_site_type_symbol
  Al1      1.0000 0.50000  0.50000  0.49999  Biso   1.000  Al
  Al2      1.0000 0.50000  0.50000  1.00000  Biso   1.000  Al
  Al3      1.0000 0.00000  1.00000  0.50000  Biso   1.000  Al
  Al4      1.0000 1.00000  1.00000  0.00000  Biso   1.000  Al
  C1       1.0000 0.89752  0.81377  0.67218  Biso   1.000  C 
  C2       1.0000 0.79623  0.27278  0.87492  Biso   1.000  C 
  C3       1.0000 0.22492  0.79451  0.78941  Biso   1.000  C 
  C4       1.0000 0.22492  0.20549  0.28941  Biso   1.000  C 
  C5       1.0000 0.77508  0.20548  0.21060  Biso   1.000  C 
  C6       1.0000 0.82177  0.77200  0.58599  Biso   1.000  C 
  C7       1.0000 0.17823  0.22799  0.41402  Biso   1.000  C 
  C8       1.0000 0.10248  0.18623  0.32782  Biso   1.000  C 
  C9       1.0000 0.82177  0.22799  0.08599  Biso   1.000  C 
  C10      1.0000 0.32176  0.27201  0.58599  Biso   1.000  C 
  C11      1.0000 0.67824  0.27201  0.91401  Biso   1.000  C 
  C12      1.0000 0.67823  0.72800  0.41401  Biso   1.000  C 
  C13      1.0000 0.32177  0.72799  0.08599  Biso   1.000  C 
  C14      1.0000 0.17823  0.77200  0.91401  Biso   1.000  C 
  C15      1.0000 0.89753  0.18622  0.17218  Biso   1.000  C 
  C16      1.0000 0.10248  0.81377  0.82782  Biso   1.000  C 
  C17      1.0000 0.60248  0.31377  0.82782  Biso   1.000  C 
  C18      1.0000 0.79623  0.72722  0.37492  Biso   1.000  C 
  C19      1.0000 0.27508  0.70548  0.21059  Biso   1.000  C 
  C20      1.0000 0.72492  0.70549  0.28941  Biso   1.000  C 
  C21      1.0000 0.39752  0.31378  0.67218  Biso   1.000  C 
  C22      1.0000 0.27508  0.29452  0.71060  Biso   1.000  C 
  C23      1.0000 0.70377  0.22722  0.12508  Biso   1.000  C 
  C24      1.0000 0.29623  0.22722  0.37492  Biso   1.000  C 
  C25      1.0000 0.72492  0.29452  0.78941  Biso   1.000  C 
  C26      1.0000 0.70377  0.77278  0.62508  Biso   1.000  C 
  C27      1.0000 0.20377  0.72722  0.12507  Biso   1.000  C 
  C28      1.0000 0.39753  0.68623  0.17218  Biso   1.000  C 
  C29      1.0000 0.20377  0.27278  0.62508  Biso   1.000  C 
  C30      1.0000 0.77508  0.79452  0.71059  Biso   1.000  C 
  C31      1.0000 0.60248  0.68623  0.32782  Biso   1.000  C 
  C32      1.0000 0.29623  0.77278  0.87491  Biso   1.000  C 
  H1       1.0000 0.29550  0.33127  0.87355  Biso   1.000  H 
  H2       1.0000 0.16693  0.71162  0.22010  Biso   1.000  H 
  H3       1.0000 0.79550  0.83127  0.87355  Biso   1.000  H 
  H4       1.0000 1.00000  0.74760  0.25000  Biso   1.000  H 
  H5       1.0000 0.00000  0.25240  0.75000  Biso   1.000  H 
  H6       1.0000 0.79550  0.16873  0.37356  Biso   1.000  H 
  H7       1.0000 0.20450  0.83127  0.62644  Biso   1.000  H 
  H8       1.0000 0.70450  0.33127  0.62644  Biso   1.000  H 
  H9       1.0000 0.20450  0.16873  0.12644  Biso   1.000  H 
  H10      1.0000 0.29550  0.66873  0.37355  Biso   1.000  H 
  H11      1.0000 0.50000  0.24760  0.25000  Biso   1.000  H 
  H12      1.0000 0.33307  0.78837  0.77989  Biso   1.000  H 
  H13      1.0000 0.33306  0.21163  0.27990  Biso   1.000  H 
  H14      1.0000 0.50000  0.75240  0.75000  Biso   1.000  H 
  H15      1.0000 0.16693  0.28837  0.72011  Biso   1.000  H 
  H16      1.0000 0.70450  0.66873  0.12644  Biso   1.000  H 
  H17      1.0000 0.83307  0.71163  0.27990  Biso   1.000  H 
  H18      1.0000 0.66693  0.21163  0.22010  Biso   1.000  H 
  H19      1.0000 0.66693  0.78838  0.72010  Biso   1.000  H 
  H20      1.0000 0.83307  0.28837  0.77990  Biso   1.000  H 
  O1       1.0000 0.93641  0.81222  0.54647  Biso   1.000  O 
  O2       1.0000 0.43641  0.68779  0.04647  Biso   1.000  O 
  O3       1.0000 0.06359  0.81221  0.95351  Biso   1.000  O 
  O4       1.0000 0.06359  0.18779  0.45352  Biso   1.000  O 
  O5       1.0000 0.93641  0.18778  0.04648  Biso   1.000  O 
  O6       1.0000 0.43641  0.31222  0.54647  Biso   1.000  O 
  O7       1.0000 0.56359  0.31221  0.95352  Biso   1.000  O 
  O8       1.0000 0.56359  0.68779  0.45352  Biso   1.000  O 
  O9       1.0000 0.91821  0.85593  0.86393  Biso   1.000  O 
  O10      1.0000 0.50000  0.61641  0.75000  Biso   1.000  O 
  O11      1.0000 0.91821  0.14407  0.36394  Biso   1.000  O 
  O12      1.0000 0.41821  0.35593  0.86393  Biso   1.000  O 
  O13      1.0000 0.50000  0.38359  0.25000  Biso   1.000  O 
  O14      1.0000 0.00000  0.11641  0.75000  Biso   1.000  O 
  O15      1.0000 0.00000  0.88359  0.25000  Biso   1.000  O 
  O16      1.0000 0.58179  0.35594  0.63607  Biso   1.000  O 
  O17      1.0000 0.58179  0.64407  0.13607  Biso   1.000  O 
  O18      1.0000 0.08179  0.85593  0.63606  Biso   1.000  O 
  O19      1.0000 0.08179  0.14407  0.13608  Biso   1.000  O 
  O20      1.0000 0.41821  0.64407  0.36393  Biso   1.000  O 
