data_image0
_cell_length_a       19.6143
_cell_length_b       8.89697
_cell_length_c       6.66732
_cell_angle_alpha    89.9988
_cell_angle_beta     106.72
_cell_angle_gamma    90.0003

_symmetry_space_group_name_H-M    "P 1"
_symmetry_int_tables_number       1

loop_
  _symmetry_equiv_pos_as_xyz
  'x, y, z'

loop_
  _atom_site_label
  _atom_site_occupancy
  _atom_site_fract_x
  _atom_site_fract_y
  _atom_site_fract_z
  _atom_site_thermal_displace_type
  _atom_site_B_iso_or_equiv
  _atom_site_type_symbol
  Al1      1.0000 0.50000  0.50000  0.49987  Biso   1.000  Al
  Al2      1.0000 0.49998  0.49999  0.99985  Biso   1.000  Al
  Al3      1.0000 0.00001  0.00001  0.50013  Biso   1.000  Al
  Al4      1.0000 0.00000  0.99999  0.00015  Biso   1.000  Al
  C1       1.0000 0.72428  0.70440  0.29077  Biso   1.000  C 
  C2       1.0000 0.39666  0.34365  0.66462  Biso   1.000  C 
  C3       1.0000 0.27573  0.29564  0.70921  Biso   1.000  C 
  C4       1.0000 0.70468  0.24554  0.12813  Biso   1.000  C 
  C5       1.0000 0.29529  0.24554  0.37180  Biso   1.000  C 
  C6       1.0000 0.72428  0.29560  0.79079  Biso   1.000  C 
  C7       1.0000 0.20471  0.74552  0.12820  Biso   1.000  C 
  C8       1.0000 0.79532  0.74555  0.37186  Biso   1.000  C 
  C9       1.0000 0.39666  0.65634  0.16459  Biso   1.000  C 
  C10      1.0000 0.20469  0.25450  0.62820  Biso   1.000  C 
  C11      1.0000 0.77572  0.79559  0.70920  Biso   1.000  C 
  C12      1.0000 0.60334  0.65633  0.33523  Biso   1.000  C 
  C13      1.0000 0.29530  0.75448  0.87180  Biso   1.000  C 
  C14      1.0000 0.70468  0.75445  0.62812  Biso   1.000  C 
  C15      1.0000 0.60334  0.34367  0.83522  Biso   1.000  C 
  C16      1.0000 0.27575  0.70437  0.20921  Biso   1.000  C 
  C17      1.0000 0.89665  0.15632  0.16478  Biso   1.000  C 
  C18      1.0000 0.89666  0.84366  0.66478  Biso   1.000  C 
  C19      1.0000 0.79532  0.25445  0.87187  Biso   1.000  C 
  C20      1.0000 0.22427  0.79563  0.79079  Biso   1.000  C 
  C21      1.0000 0.10334  0.84366  0.83540  Biso   1.000  C 
  C22      1.0000 0.77571  0.20439  0.20923  Biso   1.000  C 
  C23      1.0000 0.82147  0.79114  0.58157  Biso   1.000  C 
  C24      1.0000 0.17853  0.20887  0.41850  Biso   1.000  C 
  C25      1.0000 0.22425  0.20440  0.29079  Biso   1.000  C 
  C26      1.0000 0.82147  0.20884  0.08160  Biso   1.000  C 
  C27      1.0000 0.32147  0.29115  0.58152  Biso   1.000  C 
  C28      1.0000 0.67853  0.29115  0.91842  Biso   1.000  C 
  C29      1.0000 0.67853  0.70884  0.41840  Biso   1.000  C 
  C30      1.0000 0.32147  0.70885  0.08150  Biso   1.000  C 
  C31      1.0000 0.17854  0.79114  0.91849  Biso   1.000  C 
  C32      1.0000 0.10334  0.15635  0.33540  Biso   1.000  C 
  H1       1.0000 0.33148  0.24357  0.27472  Biso   1.000  H 
  H2       1.0000 0.50001  0.70129  0.74986  Biso   1.000  H 
  H3       1.0000 0.16850  0.25647  0.72528  Biso   1.000  H 
  H4       1.0000 0.70334  0.66705  0.12905  Biso   1.000  H 
  H5       1.0000 0.66847  0.75641  0.72515  Biso   1.000  H 
  H6       1.0000 0.66848  0.24360  0.22515  Biso   1.000  H 
  H7       1.0000 0.83152  0.25639  0.77482  Biso   1.000  H 
  H8       1.0000 0.33149  0.75645  0.77471  Biso   1.000  H 
  H9       1.0000 0.83152  0.74360  0.27485  Biso   1.000  H 
  H10      1.0000 0.50001  0.29868  0.24989  Biso   1.000  H 
  H11      1.0000 0.16852  0.74355  0.22528  Biso   1.000  H 
  H12      1.0000 0.20328  0.16703  0.12907  Biso   1.000  H 
  H13      1.0000 0.29672  0.66701  0.37093  Biso   1.000  H 
  H14      1.0000 0.79666  0.83296  0.87094  Biso   1.000  H 
  H15      1.0000 0.00001  0.79869  0.25017  Biso   1.000  H 
  H16      1.0000 0.29670  0.33300  0.87093  Biso   1.000  H 
  H17      1.0000 0.79665  0.16703  0.37094  Biso   1.000  H 
  H18      1.0000 0.20330  0.83300  0.62907  Biso   1.000  H 
  H19      1.0000 0.70334  0.33298  0.62906  Biso   1.000  H 
  H20      1.0000 1.00000  0.20130  0.75015  Biso   1.000  H 
  O1       1.0000 0.08178  0.88099  0.64305  Biso   1.000  O 
  O2       1.0000 0.91822  0.11902  0.35714  Biso   1.000  O 
  O3       1.0000 0.58178  0.61903  0.14287  Biso   1.000  O 
  O4       1.0000 0.58177  0.38097  0.64286  Biso   1.000  O 
  O5       1.0000 0.00001  0.90742  0.25013  Biso   1.000  O 
  O6       1.0000 0.00001  0.09257  0.75014  Biso   1.000  O 
  O7       1.0000 0.49999  0.40742  0.24988  Biso   1.000  O 
  O8       1.0000 0.41823  0.38097  0.85697  Biso   1.000  O 
  O9       1.0000 0.49999  0.59256  0.74987  Biso   1.000  O 
  O10      1.0000 0.43383  0.35107  0.53618  Biso   1.000  O 
  O11      1.0000 0.56616  0.64890  0.46364  Biso   1.000  O 
  O12      1.0000 0.56615  0.35110  0.96363  Biso   1.000  O 
  O13      1.0000 0.93383  0.14890  0.03636  Biso   1.000  O 
  O14      1.0000 0.06616  0.14894  0.46382  Biso   1.000  O 
  O15      1.0000 0.06617  0.85107  0.96382  Biso   1.000  O 
  O16      1.0000 0.43383  0.64891  0.03615  Biso   1.000  O 
  O17      1.0000 0.93385  0.85110  0.53637  Biso   1.000  O 
  O18      1.0000 0.08178  0.11901  0.14306  Biso   1.000  O 
  O19      1.0000 0.91823  0.88096  0.85713  Biso   1.000  O 
  O20      1.0000 0.41823  0.61903  0.35694  Biso   1.000  O 
