data_image0
_cell_length_a       17.7279
_cell_length_b       13.4529
_cell_length_c       6.68002
_cell_angle_alpha    90.0004
_cell_angle_beta     111.796
_cell_angle_gamma    89.9997

_symmetry_space_group_name_H-M    "P 1"
_symmetry_int_tables_number       1

loop_
  _symmetry_equiv_pos_as_xyz
  'x, y, z'

loop_
  _atom_site_label
  _atom_site_occupancy
  _atom_site_fract_x
  _atom_site_fract_y
  _atom_site_fract_z
  _atom_site_thermal_displace_type
  _atom_site_B_iso_or_equiv
  _atom_site_type_symbol
  Al1      1.0000 0.49999  0.49999  0.50001  Biso   1.000  Al
  Al2      1.0000 0.49999  0.50001  0.00001  Biso   1.000  Al
  Al3      1.0000 0.99999  0.99999  0.49996  Biso   1.000  Al
  Al4      1.0000 0.99999  0.00001  0.99998  Biso   1.000  Al
  C1       1.0000 0.77388  0.20596  0.20386  Biso   1.000  C 
  C2       1.0000 0.79282  0.23059  0.86563  Biso   1.000  C 
  C3       1.0000 0.18280  0.18619  0.42997  Biso   1.000  C 
  C4       1.0000 0.22611  0.20596  0.29612  Biso   1.000  C 
  C5       1.0000 0.31718  0.31381  0.57002  Biso   1.000  C 
  C6       1.0000 0.81718  0.81381  0.56998  Biso   1.000  C 
  C7       1.0000 0.68281  0.68618  0.43002  Biso   1.000  C 
  C8       1.0000 0.22611  0.79404  0.79612  Biso   1.000  C 
  C9       1.0000 0.31718  0.68620  0.07002  Biso   1.000  C 
  C10      1.0000 0.18280  0.81381  0.92997  Biso   1.000  C 
  C11      1.0000 0.11110  0.11801  0.35500  Biso   1.000  C 
  C12      1.0000 0.81717  0.18619  0.06999  Biso   1.000  C 
  C13      1.0000 0.88887  0.88201  0.64492  Biso   1.000  C 
  C14      1.0000 0.68280  0.31381  0.93002  Biso   1.000  C 
  C15      1.0000 0.88887  0.11799  0.14491  Biso   1.000  C 
  C16      1.0000 0.11110  0.88199  0.85500  Biso   1.000  C 
  C17      1.0000 0.61111  0.38199  0.85507  Biso   1.000  C 
  C18      1.0000 0.27387  0.29404  0.70386  Biso   1.000  C 
  C19      1.0000 0.27387  0.70597  0.20386  Biso   1.000  C 
  C20      1.0000 0.29284  0.26941  0.36567  Biso   1.000  C 
  C21      1.0000 0.38888  0.38200  0.64497  Biso   1.000  C 
  C22      1.0000 0.20715  0.76941  0.13432  Biso   1.000  C 
  C23      1.0000 0.70716  0.26941  0.13437  Biso   1.000  C 
  C24      1.0000 0.20715  0.23059  0.63433  Biso   1.000  C 
  C25      1.0000 0.72610  0.29404  0.79614  Biso   1.000  C 
  C26      1.0000 0.77389  0.79403  0.70386  Biso   1.000  C 
  C27      1.0000 0.61111  0.61800  0.35508  Biso   1.000  C 
  C28      1.0000 0.29284  0.73060  0.86566  Biso   1.000  C 
  C29      1.0000 0.70717  0.73059  0.63437  Biso   1.000  C 
  C30      1.0000 0.79282  0.76940  0.36563  Biso   1.000  C 
  C31      1.0000 0.38888  0.61800  0.14498  Biso   1.000  C 
  C32      1.0000 0.72610  0.70596  0.29614  Biso   1.000  C 
  H1       1.0000 0.17287  0.78553  0.23625  Biso   1.000  H 
  H2       1.0000 0.00014  0.86784  0.25007  Biso   1.000  H 
  H3       1.0000 0.29330  0.32961  0.86150  Biso   1.000  H 
  H4       1.0000 0.29330  0.67039  0.36150  Biso   1.000  H 
  H5       1.0000 0.20669  0.17038  0.13850  Biso   1.000  H 
  H6       1.0000 0.00014  0.13216  0.75008  Biso   1.000  H 
  H7       1.0000 0.70666  0.32962  0.63852  Biso   1.000  H 
  H8       1.0000 0.79332  0.17038  0.36148  Biso   1.000  H 
  H9       1.0000 0.20669  0.82961  0.63850  Biso   1.000  H 
  H10      1.0000 0.79333  0.82961  0.86150  Biso   1.000  H 
  H11      1.0000 0.17288  0.21448  0.73626  Biso   1.000  H 
  H12      1.0000 0.67290  0.28552  0.23633  Biso   1.000  H 
  H13      1.0000 0.50015  0.63215  0.75016  Biso   1.000  H 
  H14      1.0000 0.70666  0.67038  0.13852  Biso   1.000  H 
  H15      1.0000 0.32711  0.28552  0.26373  Biso   1.000  H 
  H16      1.0000 0.50016  0.36784  0.25016  Biso   1.000  H 
  H17      1.0000 0.82708  0.21448  0.76366  Biso   1.000  H 
  H18      1.0000 0.67291  0.71447  0.73636  Biso   1.000  H 
  H19      1.0000 0.82708  0.78552  0.26366  Biso   1.000  H 
  H20      1.0000 0.32711  0.71448  0.76373  Biso   1.000  H 
  O1       1.0000 0.49999  0.56026  0.75001  Biso   1.000  O 
  O2       1.0000 0.57681  0.40129  0.98797  Biso   1.000  O 
  O3       1.0000 0.08916  0.08478  0.16315  Biso   1.000  O 
  O4       1.0000 0.57681  0.59870  0.48798  Biso   1.000  O 
  O5       1.0000 0.92318  0.90129  0.51202  Biso   1.000  O 
  O6       1.0000 0.42318  0.59872  0.01208  Biso   1.000  O 
  O7       1.0000 0.07679  0.90128  0.98788  Biso   1.000  O 
  O8       1.0000 0.92317  0.09872  0.01201  Biso   1.000  O 
  O9       1.0000 0.07679  0.09873  0.48787  Biso   1.000  O 
  O10      1.0000 0.58916  0.41521  0.66321  Biso   1.000  O 
  O11      1.0000 0.49999  0.43974  0.25001  Biso   1.000  O 
  O12      1.0000 1.00000  0.93974  0.24998  Biso   1.000  O 
  O13      1.0000 0.58916  0.58479  0.16322  Biso   1.000  O 
  O14      1.0000 0.91081  0.08475  0.33675  Biso   1.000  O 
  O15      1.0000 0.08917  0.91522  0.66315  Biso   1.000  O 
  O16      1.0000 0.41081  0.41524  0.83681  Biso   1.000  O 
  O17      1.0000 0.91081  0.91525  0.83675  Biso   1.000  O 
  O18      1.0000 0.42318  0.40129  0.51208  Biso   1.000  O 
  O19      1.0000 0.99999  0.06026  0.74998  Biso   1.000  O 
  O20      1.0000 0.41082  0.58477  0.33681  Biso   1.000  O 
