data_image0
_cell_length_a       19.7312
_cell_length_b       8.20872
_cell_length_c       6.66583
_cell_angle_alpha    89.9999
_cell_angle_beta     105.979
_cell_angle_gamma    89.9999

_symmetry_space_group_name_H-M    "P 1"
_symmetry_int_tables_number       1

loop_
  _symmetry_equiv_pos_as_xyz
  'x, y, z'

loop_
  _atom_site_label
  _atom_site_occupancy
  _atom_site_fract_x
  _atom_site_fract_y
  _atom_site_fract_z
  _atom_site_thermal_displace_type
  _atom_site_B_iso_or_equiv
  _atom_site_type_symbol
  Al1      1.0000 0.50000  0.49999  0.50001  Biso   1.000  Al
  Al2      1.0000 0.50000  0.50001  0.00001  Biso   1.000  Al
  Al3      1.0000 1.00000  0.99999  0.49999  Biso   1.000  Al
  Al4      1.0000 0.00000  0.99999  0.99999  Biso   1.000  Al
  C1       1.0000 0.72491  0.70037  0.29173  Biso   1.000  C 
  C2       1.0000 0.39707  0.33391  0.66776  Biso   1.000  C 
  C3       1.0000 0.27510  0.29962  0.70827  Biso   1.000  C 
  C4       1.0000 0.70392  0.23559  0.12541  Biso   1.000  C 
  C5       1.0000 0.29608  0.23559  0.37460  Biso   1.000  C 
  C6       1.0000 0.72490  0.29962  0.79173  Biso   1.000  C 
  C7       1.0000 0.20392  0.73560  0.12540  Biso   1.000  C 
  C8       1.0000 0.79608  0.73559  0.37459  Biso   1.000  C 
  C9       1.0000 0.39707  0.66609  0.16776  Biso   1.000  C 
  C10      1.0000 0.20392  0.26440  0.62540  Biso   1.000  C 
  C11      1.0000 0.77510  0.79962  0.70827  Biso   1.000  C 
  C12      1.0000 0.60293  0.66609  0.33225  Biso   1.000  C 
  C13      1.0000 0.29608  0.76440  0.87459  Biso   1.000  C 
  C14      1.0000 0.70392  0.76439  0.62541  Biso   1.000  C 
  C15      1.0000 0.60294  0.33390  0.83225  Biso   1.000  C 
  C16      1.0000 0.27510  0.70038  0.20827  Biso   1.000  C 
  C17      1.0000 0.89707  0.16609  0.16775  Biso   1.000  C 
  C18      1.0000 0.89707  0.83391  0.66775  Biso   1.000  C 
  C19      1.0000 0.79608  0.26440  0.87459  Biso   1.000  C 
  C20      1.0000 0.22490  0.79963  0.79173  Biso   1.000  C 
  C21      1.0000 0.10294  0.83391  0.83224  Biso   1.000  C 
  C22      1.0000 0.77510  0.20038  0.20827  Biso   1.000  C 
  C23      1.0000 0.82163  0.78524  0.58334  Biso   1.000  C 
  C24      1.0000 0.17838  0.21476  0.41664  Biso   1.000  C 
  C25      1.0000 0.22490  0.20038  0.29173  Biso   1.000  C 
  C26      1.0000 0.82162  0.21475  0.08336  Biso   1.000  C 
  C27      1.0000 0.32162  0.28524  0.58336  Biso   1.000  C 
  C28      1.0000 0.67838  0.28524  0.91666  Biso   1.000  C 
  C29      1.0000 0.67838  0.71475  0.41664  Biso   1.000  C 
  C30      1.0000 0.32163  0.71476  0.08335  Biso   1.000  C 
  C31      1.0000 0.17838  0.78525  0.91664  Biso   1.000  C 
  C32      1.0000 0.10293  0.16610  0.33224  Biso   1.000  C 
  H1       1.0000 0.33284  0.22600  0.27949  Biso   1.000  H 
  H2       1.0000 0.50000  0.71838  0.75001  Biso   1.000  H 
  H3       1.0000 0.16716  0.27400  0.72051  Biso   1.000  H 
  H4       1.0000 0.70453  0.65988  0.13072  Biso   1.000  H 
  H5       1.0000 0.66716  0.77399  0.72053  Biso   1.000  H 
  H6       1.0000 0.66716  0.22600  0.22051  Biso   1.000  H 
  H7       1.0000 0.83284  0.27399  0.77947  Biso   1.000  H 
  H8       1.0000 0.33284  0.77400  0.77949  Biso   1.000  H 
  H9       1.0000 0.83284  0.72600  0.27949  Biso   1.000  H 
  H10      1.0000 0.50000  0.28162  0.25001  Biso   1.000  H 
  H11      1.0000 0.16716  0.72601  0.22051  Biso   1.000  H 
  H12      1.0000 0.20453  0.15988  0.13071  Biso   1.000  H 
  H13      1.0000 0.29547  0.65988  0.36929  Biso   1.000  H 
  H14      1.0000 0.79547  0.84012  0.86930  Biso   1.000  H 
  H15      1.0000 0.00000  0.78162  0.24999  Biso   1.000  H 
  H16      1.0000 0.29547  0.34012  0.86929  Biso   1.000  H 
  H17      1.0000 0.79547  0.15988  0.36928  Biso   1.000  H 
  H18      1.0000 0.20453  0.84013  0.63071  Biso   1.000  H 
  H19      1.0000 0.70453  0.34012  0.63070  Biso   1.000  H 
  H20      1.0000 1.00000  0.21839  0.74999  Biso   1.000  H 
  O1       1.0000 0.08172  0.87286  0.64014  Biso   1.000  O 
  O2       1.0000 0.91828  0.12715  0.35985  Biso   1.000  O 
  O3       1.0000 0.58172  0.62715  0.14014  Biso   1.000  O 
  O4       1.0000 0.58172  0.37285  0.64014  Biso   1.000  O 
  O5       1.0000 0.00000  0.89948  0.24999  Biso   1.000  O 
  O6       1.0000 1.00000  0.10052  0.74999  Biso   1.000  O 
  O7       1.0000 0.50000  0.39948  0.25001  Biso   1.000  O 
  O8       1.0000 0.41828  0.37284  0.85987  Biso   1.000  O 
  O9       1.0000 0.50000  0.60052  0.75001  Biso   1.000  O 
  O10      1.0000 0.43494  0.33800  0.54041  Biso   1.000  O 
  O11      1.0000 0.56505  0.66200  0.45961  Biso   1.000  O 
  O12      1.0000 0.56506  0.33800  0.95960  Biso   1.000  O 
  O13      1.0000 0.93495  0.16200  0.04039  Biso   1.000  O 
  O14      1.0000 0.06505  0.16201  0.45959  Biso   1.000  O 
  O15      1.0000 0.06506  0.83801  0.95959  Biso   1.000  O 
  O16      1.0000 0.43495  0.66200  0.04040  Biso   1.000  O 
  O17      1.0000 0.93494  0.83800  0.54040  Biso   1.000  O 
  O18      1.0000 0.08172  0.12716  0.14013  Biso   1.000  O 
  O19      1.0000 0.91828  0.87285  0.85986  Biso   1.000  O 
  O20      1.0000 0.41828  0.62716  0.35987  Biso   1.000  O 
