data_image0
_cell_length_a       19.166
_cell_length_b       10.4124
_cell_length_c       6.66521
_cell_angle_alpha    89.9983
_cell_angle_beta     108.061
_cell_angle_gamma    90.0006

_symmetry_space_group_name_H-M    "P 1"
_symmetry_int_tables_number       1

loop_
  _symmetry_equiv_pos_as_xyz
  'x, y, z'

loop_
  _atom_site_label
  _atom_site_occupancy
  _atom_site_fract_x
  _atom_site_fract_y
  _atom_site_fract_z
  _atom_site_thermal_displace_type
  _atom_site_B_iso_or_equiv
  _atom_site_type_symbol
  Al1      1.0000 0.50001  0.49990  0.49942  Biso   1.000  Al
  Al2      1.0000 0.50001  0.50008  0.99944  Biso   1.000  Al
  Al3      1.0000 0.99999  0.00009  0.50056  Biso   1.000  Al
  Al4      1.0000 0.99999  0.99994  0.00058  Biso   1.000  Al
  C1       1.0000 0.22467  0.79529  0.79220  Biso   1.000  C 
  C2       1.0000 0.10485  0.86048  0.84081  Biso   1.000  C 
  C3       1.0000 0.77517  0.20482  0.20786  Biso   1.000  C 
  C4       1.0000 0.82070  0.80122  0.57891  Biso   1.000  C 
  C5       1.0000 0.17929  0.19878  0.42160  Biso   1.000  C 
  C6       1.0000 0.22468  0.20471  0.29221  Biso   1.000  C 
  C7       1.0000 0.32071  0.30122  0.57839  Biso   1.000  C 
  C8       1.0000 0.89511  0.86047  0.66021  Biso   1.000  C 
  C9       1.0000 0.67930  0.30121  0.92110  Biso   1.000  C 
  C10      1.0000 0.67931  0.69877  0.42114  Biso   1.000  C 
  C11      1.0000 0.32071  0.69879  0.07839  Biso   1.000  C 
  C12      1.0000 0.17929  0.80122  0.92161  Biso   1.000  C 
  C13      1.0000 0.10486  0.13953  0.34082  Biso   1.000  C 
  C14      1.0000 0.82069  0.19878  0.07886  Biso   1.000  C 
  C15      1.0000 0.89511  0.13956  0.16020  Biso   1.000  C 
  C16      1.0000 0.79508  0.24404  0.87051  Biso   1.000  C 
  C17      1.0000 0.60488  0.36045  0.83979  Biso   1.000  C 
  C18      1.0000 0.72483  0.70483  0.29215  Biso   1.000  C 
  C19      1.0000 0.39514  0.36047  0.65920  Biso   1.000  C 
  C20      1.0000 0.27532  0.29529  0.70779  Biso   1.000  C 
  C21      1.0000 0.27532  0.70472  0.20779  Biso   1.000  C 
  C22      1.0000 0.29496  0.25583  0.37015  Biso   1.000  C 
  C23      1.0000 0.72481  0.29516  0.79210  Biso   1.000  C 
  C24      1.0000 0.20504  0.75584  0.12985  Biso   1.000  C 
  C25      1.0000 0.70490  0.25594  0.12945  Biso   1.000  C 
  C26      1.0000 0.39514  0.63952  0.15918  Biso   1.000  C 
  C27      1.0000 0.20504  0.24417  0.62985  Biso   1.000  C 
  C28      1.0000 0.77518  0.79516  0.70790  Biso   1.000  C 
  C29      1.0000 0.60489  0.63954  0.33980  Biso   1.000  C 
  C30      1.0000 0.29496  0.74417  0.87014  Biso   1.000  C 
  C31      1.0000 0.70491  0.74403  0.62949  Biso   1.000  C 
  C32      1.0000 0.79510  0.75595  0.37056  Biso   1.000  C 
  H1       1.0000 0.29594  0.66784  0.36841  Biso   1.000  H 
  H2       1.0000 0.79570  0.83195  0.86858  Biso   1.000  H 
  H3       1.0000 0.99999  0.82827  0.25090  Biso   1.000  H 
  H4       1.0000 0.29593  0.33217  0.86842  Biso   1.000  H 
  H5       1.0000 0.70430  0.33195  0.63141  Biso   1.000  H 
  H6       1.0000 0.20405  0.83215  0.63157  Biso   1.000  H 
  H7       1.0000 0.99996  0.17177  0.75083  Biso   1.000  H 
  H8       1.0000 0.20407  0.16783  0.13159  Biso   1.000  H 
  H9       1.0000 0.79569  0.16802  0.36857  Biso   1.000  H 
  H10      1.0000 0.16907  0.76176  0.22804  Biso   1.000  H 
  H11      1.0000 0.50007  0.67174  0.74914  Biso   1.000  H 
  H12      1.0000 0.83115  0.76198  0.27262  Biso   1.000  H 
  H13      1.0000 0.50007  0.32825  0.24915  Biso   1.000  H 
  H14      1.0000 0.16907  0.23823  0.72803  Biso   1.000  H 
  H15      1.0000 0.70431  0.66803  0.13144  Biso   1.000  H 
  H16      1.0000 0.33093  0.26176  0.27198  Biso   1.000  H 
  H17      1.0000 0.66885  0.26196  0.22740  Biso   1.000  H 
  H18      1.0000 0.83113  0.23802  0.77257  Biso   1.000  H 
  H19      1.0000 0.33092  0.73824  0.77194  Biso   1.000  H 
  H20      1.0000 0.66887  0.73800  0.72742  Biso   1.000  H 
  O1       1.0000 0.08328  0.10370  0.14869  Biso   1.000  O 
  O2       1.0000 0.56835  0.62731  0.46934  Biso   1.000  O 
  O3       1.0000 0.93165  0.87270  0.53066  Biso   1.000  O 
  O4       1.0000 0.43162  0.62743  0.02943  Biso   1.000  O 
  O5       1.0000 0.06838  0.87258  0.97056  Biso   1.000  O 
  O6       1.0000 0.06838  0.12744  0.47058  Biso   1.000  O 
  O7       1.0000 0.93165  0.12734  0.03065  Biso   1.000  O 
  O8       1.0000 0.56835  0.37268  0.96935  Biso   1.000  O 
  O9       1.0000 0.43162  0.37255  0.52945  Biso   1.000  O 
  O10      1.0000 0.99998  0.07886  0.75066  Biso   1.000  O 
  O11      1.0000 0.41672  0.39632  0.85131  Biso   1.000  O 
  O12      1.0000 0.50002  0.42115  0.24933  Biso   1.000  O 
  O13      1.0000 0.99997  0.92117  0.25067  Biso   1.000  O 
  O14      1.0000 0.58337  0.39614  0.64758  Biso   1.000  O 
  O15      1.0000 0.58337  0.60386  0.14757  Biso   1.000  O 
  O16      1.0000 0.91663  0.10387  0.35243  Biso   1.000  O 
  O17      1.0000 0.08328  0.89633  0.64870  Biso   1.000  O 
  O18      1.0000 0.91663  0.89617  0.85242  Biso   1.000  O 
  O19      1.0000 0.50002  0.57883  0.74932  Biso   1.000  O 
  O20      1.0000 0.41672  0.60366  0.35130  Biso   1.000  O 
