data_image0
_cell_length_a       19.7872
_cell_length_b       7.55354
_cell_length_c       6.66807
_cell_angle_alpha    89.9998
_cell_angle_beta     105.247
_cell_angle_gamma    90.0001

_symmetry_space_group_name_H-M    "P 1"
_symmetry_int_tables_number       1

loop_
  _symmetry_equiv_pos_as_xyz
  'x, y, z'

loop_
  _atom_site_label
  _atom_site_occupancy
  _atom_site_fract_x
  _atom_site_fract_y
  _atom_site_fract_z
  _atom_site_thermal_displace_type
  _atom_site_B_iso_or_equiv
  _atom_site_type_symbol
  Al1      1.0000 0.50000  0.49999  0.50000  Biso   1.000  Al
  Al2      1.0000 0.50000  0.50000  0.00001  Biso   1.000  Al
  Al3      1.0000 0.00000  0.00001  0.49999  Biso   1.000  Al
  Al4      1.0000 1.00000  0.00001  1.00000  Biso   1.000  Al
  C1       1.0000 0.89733  0.82296  0.67105  Biso   1.000  C 
  C2       1.0000 0.79639  0.26836  0.87502  Biso   1.000  C 
  C3       1.0000 0.22514  0.79661  0.79032  Biso   1.000  C 
  C4       1.0000 0.22514  0.20340  0.29032  Biso   1.000  C 
  C5       1.0000 0.77486  0.20339  0.20969  Biso   1.000  C 
  C6       1.0000 0.82170  0.77832  0.58522  Biso   1.000  C 
  C7       1.0000 0.17830  0.22167  0.41477  Biso   1.000  C 
  C8       1.0000 0.10267  0.17705  0.32895  Biso   1.000  C 
  C9       1.0000 0.82169  0.22166  0.08524  Biso   1.000  C 
  C10      1.0000 0.32170  0.27833  0.58523  Biso   1.000  C 
  C11      1.0000 0.67830  0.27832  0.91478  Biso   1.000  C 
  C12      1.0000 0.67831  0.72166  0.41476  Biso   1.000  C 
  C13      1.0000 0.32170  0.72167  0.08523  Biso   1.000  C 
  C14      1.0000 0.17830  0.77834  0.91477  Biso   1.000  C 
  C15      1.0000 0.89733  0.17704  0.17104  Biso   1.000  C 
  C16      1.0000 0.10267  0.82296  0.82895  Biso   1.000  C 
  C17      1.0000 0.60267  0.32295  0.82895  Biso   1.000  C 
  C18      1.0000 0.79639  0.73162  0.37501  Biso   1.000  C 
  C19      1.0000 0.27486  0.70340  0.20968  Biso   1.000  C 
  C20      1.0000 0.72514  0.70339  0.29031  Biso   1.000  C 
  C21      1.0000 0.39733  0.32295  0.67105  Biso   1.000  C 
  C22      1.0000 0.27486  0.29660  0.70968  Biso   1.000  C 
  C23      1.0000 0.70361  0.23162  0.12499  Biso   1.000  C 
  C24      1.0000 0.29640  0.23162  0.37502  Biso   1.000  C 
  C25      1.0000 0.72513  0.29659  0.79032  Biso   1.000  C 
  C26      1.0000 0.70361  0.76836  0.62498  Biso   1.000  C 
  C27      1.0000 0.20360  0.73163  0.12498  Biso   1.000  C 
  C28      1.0000 0.39733  0.67704  0.17105  Biso   1.000  C 
  C29      1.0000 0.20360  0.26838  0.62498  Biso   1.000  C 
  C30      1.0000 0.77487  0.79660  0.70968  Biso   1.000  C 
  C31      1.0000 0.60267  0.67704  0.32896  Biso   1.000  C 
  C32      1.0000 0.29640  0.76838  0.87502  Biso   1.000  C 
  H1       1.0000 0.29514  0.33491  0.87185  Biso   1.000  H 
  H2       1.0000 0.16661  0.71941  0.21978  Biso   1.000  H 
  H3       1.0000 0.79515  0.83491  0.87187  Biso   1.000  H 
  H4       1.0000 1.00000  0.76223  0.25000  Biso   1.000  H 
  H5       1.0000 1.00000  0.23778  0.75000  Biso   1.000  H 
  H6       1.0000 0.79514  0.16509  0.37184  Biso   1.000  H 
  H7       1.0000 0.20486  0.83492  0.62815  Biso   1.000  H 
  H8       1.0000 0.70485  0.33491  0.62813  Biso   1.000  H 
  H9       1.0000 0.20486  0.16509  0.12815  Biso   1.000  H 
  H10      1.0000 0.29515  0.66509  0.37185  Biso   1.000  H 
  H11      1.0000 0.50000  0.26222  0.25000  Biso   1.000  H 
  H12      1.0000 0.33339  0.78060  0.78022  Biso   1.000  H 
  H13      1.0000 0.33339  0.21940  0.28022  Biso   1.000  H 
  H14      1.0000 0.50000  0.73777  0.75000  Biso   1.000  H 
  H15      1.0000 0.16661  0.28060  0.71978  Biso   1.000  H 
  H16      1.0000 0.70486  0.66509  0.12816  Biso   1.000  H 
  H17      1.0000 0.83339  0.71941  0.28023  Biso   1.000  H 
  H18      1.0000 0.66661  0.21941  0.21977  Biso   1.000  H 
  H19      1.0000 0.66661  0.78059  0.71979  Biso   1.000  H 
  H20      1.0000 0.83339  0.28060  0.78021  Biso   1.000  H 
  O1       1.0000 0.93604  0.82319  0.54506  Biso   1.000  O 
  O2       1.0000 0.43604  0.67681  0.04506  Biso   1.000  O 
  O3       1.0000 0.06396  0.82320  0.95494  Biso   1.000  O 
  O4       1.0000 0.06396  0.17682  0.45493  Biso   1.000  O 
  O5       1.0000 0.93604  0.17681  0.04505  Biso   1.000  O 
  O6       1.0000 0.43604  0.32318  0.54506  Biso   1.000  O 
  O7       1.0000 0.56396  0.32318  0.95494  Biso   1.000  O 
  O8       1.0000 0.56396  0.67680  0.45495  Biso   1.000  O 
  O9       1.0000 0.91805  0.86405  0.86271  Biso   1.000  O 
  O10      1.0000 0.50000  0.60965  0.75000  Biso   1.000  O 
  O11      1.0000 0.91804  0.13596  0.36271  Biso   1.000  O 
  O12      1.0000 0.41804  0.36405  0.86271  Biso   1.000  O 
  O13      1.0000 0.50000  0.39034  0.25000  Biso   1.000  O 
  O14      1.0000 1.00000  0.10966  0.75000  Biso   1.000  O 
  O15      1.0000 0.00000  0.89036  0.25000  Biso   1.000  O 
  O16      1.0000 0.58195  0.36404  0.63729  Biso   1.000  O 
  O17      1.0000 0.58196  0.63595  0.13729  Biso   1.000  O 
  O18      1.0000 0.08196  0.86406  0.63729  Biso   1.000  O 
  O19      1.0000 0.08196  0.13596  0.13728  Biso   1.000  O 
  O20      1.0000 0.41804  0.63595  0.36272  Biso   1.000  O 
