data_image0
_cell_length_a       19.7299
_cell_length_b       6.31505
_cell_length_c       6.64512
_cell_angle_alpha    90.0002
_cell_angle_beta     103.679
_cell_angle_gamma    89.9998

_symmetry_space_group_name_H-M    "P 1"
_symmetry_int_tables_number       1

loop_
  _symmetry_equiv_pos_as_xyz
  'x, y, z'

loop_
  _atom_site_label
  _atom_site_occupancy
  _atom_site_fract_x
  _atom_site_fract_y
  _atom_site_fract_z
  _atom_site_thermal_displace_type
  _atom_site_B_iso_or_equiv
  _atom_site_type_symbol
  Al1      1.0000 0.50000  0.50000  0.50000  Biso   1.000  Al
  Al2      1.0000 0.50000  0.50000  1.00000  Biso   1.000  Al
  Al3      1.0000 0.00000  0.00000  0.50000  Biso   1.000  Al
  Al4      1.0000 0.00000  0.00000  0.00000  Biso   1.000  Al
  C1       1.0000 0.89749  0.79499  0.67792  Biso   1.000  C 
  C2       1.0000 0.79754  0.27830  0.87592  Biso   1.000  C 
  C3       1.0000 0.22637  0.78829  0.78771  Biso   1.000  C 
  C4       1.0000 0.22636  0.21172  0.28771  Biso   1.000  C 
  C5       1.0000 0.77363  0.21172  0.21229  Biso   1.000  C 
  C6       1.0000 0.82158  0.76045  0.58875  Biso   1.000  C 
  C7       1.0000 0.17842  0.23955  0.41126  Biso   1.000  C 
  C8       1.0000 0.10251  0.20501  0.32209  Biso   1.000  C 
  C9       1.0000 0.82158  0.23955  0.08874  Biso   1.000  C 
  C10      1.0000 0.32158  0.26045  0.58875  Biso   1.000  C 
  C11      1.0000 0.67842  0.26045  0.91126  Biso   1.000  C 
  C12      1.0000 0.67842  0.73955  0.41126  Biso   1.000  C 
  C13      1.0000 0.32158  0.73955  0.08874  Biso   1.000  C 
  C14      1.0000 0.17842  0.76045  0.91126  Biso   1.000  C 
  C15      1.0000 0.89749  0.20501  0.17793  Biso   1.000  C 
  C16      1.0000 0.10251  0.79499  0.82207  Biso   1.000  C 
  C17      1.0000 0.60251  0.29499  0.82207  Biso   1.000  C 
  C18      1.0000 0.79754  0.72170  0.37592  Biso   1.000  C 
  C19      1.0000 0.27363  0.71172  0.21229  Biso   1.000  C 
  C20      1.0000 0.72637  0.71172  0.28771  Biso   1.000  C 
  C21      1.0000 0.39749  0.29499  0.67792  Biso   1.000  C 
  C22      1.0000 0.27363  0.28829  0.71229  Biso   1.000  C 
  C23      1.0000 0.70246  0.22170  0.12407  Biso   1.000  C 
  C24      1.0000 0.29754  0.22170  0.37592  Biso   1.000  C 
  C25      1.0000 0.72637  0.28829  0.78771  Biso   1.000  C 
  C26      1.0000 0.70246  0.77830  0.62408  Biso   1.000  C 
  C27      1.0000 0.20246  0.72170  0.12408  Biso   1.000  C 
  C28      1.0000 0.39749  0.70501  0.17793  Biso   1.000  C 
  C29      1.0000 0.20246  0.27830  0.62407  Biso   1.000  C 
  C30      1.0000 0.77363  0.78829  0.71229  Biso   1.000  C 
  C31      1.0000 0.60251  0.70501  0.32208  Biso   1.000  C 
  C32      1.0000 0.29754  0.77830  0.87593  Biso   1.000  C 
  H1       1.0000 0.29310  0.31939  0.87689  Biso   1.000  H 
  H2       1.0000 0.16454  0.70290  0.21820  Biso   1.000  H 
  H3       1.0000 0.79310  0.81939  0.87688  Biso   1.000  H 
  H4       1.0000 1.00000  0.71404  0.25000  Biso   1.000  H 
  H5       1.0000 1.00000  0.28596  0.75000  Biso   1.000  H 
  H6       1.0000 0.79310  0.18061  0.37688  Biso   1.000  H 
  H7       1.0000 0.20690  0.81939  0.62312  Biso   1.000  H 
  H8       1.0000 0.70690  0.31939  0.62312  Biso   1.000  H 
  H9       1.0000 0.20690  0.18061  0.12312  Biso   1.000  H 
  H10      1.0000 0.29310  0.68061  0.37688  Biso   1.000  H 
  H11      1.0000 0.50000  0.21404  0.25000  Biso   1.000  H 
  H12      1.0000 0.33545  0.79710  0.78180  Biso   1.000  H 
  H13      1.0000 0.33546  0.20290  0.28180  Biso   1.000  H 
  H14      1.0000 0.50000  0.78596  0.75000  Biso   1.000  H 
  H15      1.0000 0.16455  0.29710  0.71820  Biso   1.000  H 
  H16      1.0000 0.70690  0.68061  0.12312  Biso   1.000  H 
  H17      1.0000 0.83545  0.70290  0.28180  Biso   1.000  H 
  H18      1.0000 0.66455  0.20290  0.21820  Biso   1.000  H 
  H19      1.0000 0.66455  0.79710  0.71820  Biso   1.000  H 
  H20      1.0000 0.83545  0.29710  0.78180  Biso   1.000  H 
  O1       1.0000 0.93830  0.78522  0.55474  Biso   1.000  O 
  O2       1.0000 0.43830  0.71478  0.05475  Biso   1.000  O 
  O3       1.0000 0.06170  0.78522  0.94526  Biso   1.000  O 
  O4       1.0000 0.06170  0.21478  0.44524  Biso   1.000  O 
  O5       1.0000 0.93830  0.21478  0.05475  Biso   1.000  O 
  O6       1.0000 0.43830  0.28522  0.55473  Biso   1.000  O 
  O7       1.0000 0.56170  0.28522  0.94525  Biso   1.000  O 
  O8       1.0000 0.56170  0.71478  0.44526  Biso   1.000  O 
  O9       1.0000 0.91686  0.84253  0.86918  Biso   1.000  O 
  O10      1.0000 0.50000  0.63256  0.75000  Biso   1.000  O 
  O11      1.0000 0.91686  0.15748  0.36918  Biso   1.000  O 
  O12      1.0000 0.41686  0.34253  0.86919  Biso   1.000  O 
  O13      1.0000 0.50000  0.36744  0.25000  Biso   1.000  O 
  O14      1.0000 0.00000  0.13257  0.75000  Biso   1.000  O 
  O15      1.0000 1.00000  0.86744  0.25000  Biso   1.000  O 
  O16      1.0000 0.58314  0.34252  0.63082  Biso   1.000  O 
  O17      1.0000 0.58314  0.65747  0.13082  Biso   1.000  O 
  O18      1.0000 0.08314  0.84252  0.63082  Biso   1.000  O 
  O19      1.0000 0.08314  0.15748  0.13084  Biso   1.000  O 
  O20      1.0000 0.41686  0.65748  0.36918  Biso   1.000  O 
