data_image0
_cell_length_a       19.4522
_cell_length_b       9.61911
_cell_length_c       6.66544
_cell_angle_alpha    89.9994
_cell_angle_beta     107.501
_cell_angle_gamma    90.0005

_symmetry_space_group_name_H-M    "P 1"
_symmetry_int_tables_number       1

loop_
  _symmetry_equiv_pos_as_xyz
  'x, y, z'

loop_
  _atom_site_label
  _atom_site_occupancy
  _atom_site_fract_x
  _atom_site_fract_y
  _atom_site_fract_z
  _atom_site_thermal_displace_type
  _atom_site_B_iso_or_equiv
  _atom_site_type_symbol
  Al1      1.0000 0.50000  0.49998  0.49995  Biso   1.000  Al
  Al2      1.0000 0.50000  0.50000  0.99996  Biso   1.000  Al
  Al3      1.0000 0.00000  0.00001  0.50004  Biso   1.000  Al
  Al4      1.0000 1.00000  0.99999  0.00004  Biso   1.000  Al
  C1       1.0000 0.22436  0.79740  0.79225  Biso   1.000  C 
  C2       1.0000 0.10389  0.85203  0.83864  Biso   1.000  C 
  C3       1.0000 0.77562  0.20261  0.20778  Biso   1.000  C 
  C4       1.0000 0.82126  0.79601  0.57984  Biso   1.000  C 
  C5       1.0000 0.17874  0.20399  0.42024  Biso   1.000  C 
  C6       1.0000 0.22435  0.20262  0.29224  Biso   1.000  C 
  C7       1.0000 0.32126  0.29603  0.57975  Biso   1.000  C 
  C8       1.0000 0.89611  0.85202  0.66147  Biso   1.000  C 
  C9       1.0000 0.67874  0.29602  0.92016  Biso   1.000  C 
  C10      1.0000 0.67875  0.70398  0.42016  Biso   1.000  C 
  C11      1.0000 0.32126  0.70398  0.07976  Biso   1.000  C 
  C12      1.0000 0.17874  0.79602  0.92025  Biso   1.000  C 
  C13      1.0000 0.10388  0.14799  0.33863  Biso   1.000  C 
  C14      1.0000 0.82125  0.20397  0.07984  Biso   1.000  C 
  C15      1.0000 0.89611  0.14797  0.16148  Biso   1.000  C 
  C16      1.0000 0.79520  0.25148  0.87159  Biso   1.000  C 
  C17      1.0000 0.60389  0.35202  0.83853  Biso   1.000  C 
  C18      1.0000 0.72438  0.70262  0.29222  Biso   1.000  C 
  C19      1.0000 0.39611  0.35202  0.66137  Biso   1.000  C 
  C20      1.0000 0.27564  0.29741  0.70775  Biso   1.000  C 
  C21      1.0000 0.27565  0.70261  0.20776  Biso   1.000  C 
  C22      1.0000 0.29517  0.24850  0.37152  Biso   1.000  C 
  C23      1.0000 0.72438  0.29738  0.79223  Biso   1.000  C 
  C24      1.0000 0.20482  0.74850  0.12848  Biso   1.000  C 
  C25      1.0000 0.70480  0.24851  0.12841  Biso   1.000  C 
  C26      1.0000 0.39611  0.64798  0.16137  Biso   1.000  C 
  C27      1.0000 0.20482  0.25152  0.62847  Biso   1.000  C 
  C28      1.0000 0.77562  0.79737  0.70777  Biso   1.000  C 
  C29      1.0000 0.60389  0.64797  0.33852  Biso   1.000  C 
  C30      1.0000 0.29518  0.75151  0.87153  Biso   1.000  C 
  C31      1.0000 0.70480  0.75148  0.62840  Biso   1.000  C 
  C32      1.0000 0.79520  0.74851  0.37159  Biso   1.000  C 
  H1       1.0000 0.29651  0.66401  0.36839  Biso   1.000  H 
  H2       1.0000 0.79646  0.83594  0.86842  Biso   1.000  H 
  H3       1.0000 0.00001  0.81428  0.25009  Biso   1.000  H 
  H4       1.0000 0.29650  0.33600  0.86838  Biso   1.000  H 
  H5       1.0000 0.70354  0.33595  0.63159  Biso   1.000  H 
  H6       1.0000 0.20349  0.83600  0.63161  Biso   1.000  H 
  H7       1.0000 0.00000  0.18572  0.75008  Biso   1.000  H 
  H8       1.0000 0.20349  0.16402  0.13161  Biso   1.000  H 
  H9       1.0000 0.79645  0.16403  0.36843  Biso   1.000  H 
  H10      1.0000 0.16876  0.74862  0.22586  Biso   1.000  H 
  H11      1.0000 0.50000  0.68572  0.74992  Biso   1.000  H 
  H12      1.0000 0.83129  0.74866  0.27428  Biso   1.000  H 
  H13      1.0000 0.50000  0.31428  0.24993  Biso   1.000  H 
  H14      1.0000 0.16875  0.25139  0.72585  Biso   1.000  H 
  H15      1.0000 0.70355  0.66405  0.13156  Biso   1.000  H 
  H16      1.0000 0.33124  0.24863  0.27414  Biso   1.000  H 
  H17      1.0000 0.66871  0.24865  0.22572  Biso   1.000  H 
  H18      1.0000 0.83128  0.25134  0.77430  Biso   1.000  H 
  H19      1.0000 0.33124  0.75138  0.77414  Biso   1.000  H 
  H20      1.0000 0.66872  0.75134  0.72570  Biso   1.000  H 
  O1       1.0000 0.08187  0.11207  0.14594  Biso   1.000  O 
  O2       1.0000 0.56755  0.63740  0.46841  Biso   1.000  O 
  O3       1.0000 0.93245  0.86259  0.53159  Biso   1.000  O 
  O4       1.0000 0.43244  0.63740  0.03143  Biso   1.000  O 
  O5       1.0000 0.06757  0.86261  0.96857  Biso   1.000  O 
  O6       1.0000 0.06756  0.13741  0.46857  Biso   1.000  O 
  O7       1.0000 0.93244  0.13740  0.03158  Biso   1.000  O 
  O8       1.0000 0.56755  0.36259  0.96842  Biso   1.000  O 
  O9       1.0000 0.43243  0.36260  0.53143  Biso   1.000  O 
  O10      1.0000 1.00000  0.08516  0.75005  Biso   1.000  O 
  O11      1.0000 0.41813  0.38794  0.85406  Biso   1.000  O 
  O12      1.0000 0.50000  0.41484  0.24995  Biso   1.000  O 
  O13      1.0000 0.00000  0.91484  0.25006  Biso   1.000  O 
  O14      1.0000 0.58189  0.38794  0.64583  Biso   1.000  O 
  O15      1.0000 0.58189  0.61205  0.14582  Biso   1.000  O 
  O16      1.0000 0.91811  0.11204  0.35418  Biso   1.000  O 
  O17      1.0000 0.08188  0.88794  0.64594  Biso   1.000  O 
  O18      1.0000 0.91811  0.88794  0.85418  Biso   1.000  O 
  O19      1.0000 0.50000  0.58516  0.74995  Biso   1.000  O 
  O20      1.0000 0.41813  0.61207  0.35406  Biso   1.000  O 
