data_image0
_cell_length_a       18.1603
_cell_length_b       12.7478
_cell_length_c       6.67618
_cell_angle_alpha    90.0002
_cell_angle_beta     110.857
_cell_angle_gamma    89.9999

_symmetry_space_group_name_H-M    "P 1"
_symmetry_int_tables_number       1

loop_
  _symmetry_equiv_pos_as_xyz
  'x, y, z'

loop_
  _atom_site_label
  _atom_site_occupancy
  _atom_site_fract_x
  _atom_site_fract_y
  _atom_site_fract_z
  _atom_site_thermal_displace_type
  _atom_site_B_iso_or_equiv
  _atom_site_type_symbol
  Al1      1.0000 0.49999  0.50001  0.50006  Biso   1.000  Al
  Al2      1.0000 0.49999  0.49999  0.00006  Biso   1.000  Al
  Al3      1.0000 1.00000  0.99999  0.49993  Biso   1.000  Al
  Al4      1.0000 1.00000  0.00000  0.99993  Biso   1.000  Al
  C1       1.0000 0.77452  0.20542  0.20483  Biso   1.000  C 
  C2       1.0000 0.79345  0.23372  0.86684  Biso   1.000  C 
  C3       1.0000 0.18155  0.18884  0.42777  Biso   1.000  C 
  C4       1.0000 0.22551  0.20544  0.29516  Biso   1.000  C 
  C5       1.0000 0.31842  0.31118  0.57221  Biso   1.000  C 
  C6       1.0000 0.81843  0.81118  0.57209  Biso   1.000  C 
  C7       1.0000 0.68156  0.68883  0.42789  Biso   1.000  C 
  C8       1.0000 0.22552  0.79457  0.79517  Biso   1.000  C 
  C9       1.0000 0.31843  0.68883  0.07222  Biso   1.000  C 
  C10      1.0000 0.18157  0.81118  0.92778  Biso   1.000  C 
  C11      1.0000 0.10909  0.12231  0.35185  Biso   1.000  C 
  C12      1.0000 0.81843  0.18881  0.07209  Biso   1.000  C 
  C13      1.0000 0.89090  0.87770  0.64795  Biso   1.000  C 
  C14      1.0000 0.68156  0.31116  0.92789  Biso   1.000  C 
  C15      1.0000 0.89090  0.12229  0.14795  Biso   1.000  C 
  C16      1.0000 0.10910  0.87770  0.85185  Biso   1.000  C 
  C17      1.0000 0.60908  0.37769  0.85203  Biso   1.000  C 
  C18      1.0000 0.27447  0.29459  0.70483  Biso   1.000  C 
  C19      1.0000 0.27449  0.70543  0.20485  Biso   1.000  C 
  C20      1.0000 0.29350  0.26627  0.36697  Biso   1.000  C 
  C21      1.0000 0.39089  0.37771  0.64814  Biso   1.000  C 
  C22      1.0000 0.20649  0.76627  0.13304  Biso   1.000  C 
  C23      1.0000 0.70653  0.26625  0.13314  Biso   1.000  C 
  C24      1.0000 0.20648  0.23376  0.63302  Biso   1.000  C 
  C25      1.0000 0.72546  0.29455  0.79515  Biso   1.000  C 
  C26      1.0000 0.77453  0.79457  0.70484  Biso   1.000  C 
  C27      1.0000 0.60909  0.62230  0.35204  Biso   1.000  C 
  C28      1.0000 0.29351  0.73374  0.86698  Biso   1.000  C 
  C29      1.0000 0.70653  0.73374  0.63315  Biso   1.000  C 
  C30      1.0000 0.79346  0.76627  0.36684  Biso   1.000  C 
  C31      1.0000 0.39090  0.62230  0.14814  Biso   1.000  C 
  C32      1.0000 0.72546  0.70544  0.29515  Biso   1.000  C 
  H1       1.0000 0.17163  0.77989  0.23384  Biso   1.000  H 
  H2       1.0000 0.00004  0.86051  0.24991  Biso   1.000  H 
  H3       1.0000 0.29435  0.33061  0.86321  Biso   1.000  H 
  H4       1.0000 0.29436  0.66942  0.36323  Biso   1.000  H 
  H5       1.0000 0.20563  0.16942  0.13678  Biso   1.000  H 
  H6       1.0000 0.00005  0.13949  0.74992  Biso   1.000  H 
  H7       1.0000 0.70554  0.33057  0.63677  Biso   1.000  H 
  H8       1.0000 0.79444  0.16940  0.36322  Biso   1.000  H 
  H9       1.0000 0.20564  0.83059  0.63678  Biso   1.000  H 
  H10      1.0000 0.79444  0.83059  0.86323  Biso   1.000  H 
  H11      1.0000 0.17162  0.22014  0.73382  Biso   1.000  H 
  H12      1.0000 0.67171  0.27987  0.23405  Biso   1.000  H 
  H13      1.0000 0.50014  0.63949  0.75025  Biso   1.000  H 
  H14      1.0000 0.70555  0.66942  0.13677  Biso   1.000  H 
  H15      1.0000 0.32836  0.27988  0.26617  Biso   1.000  H 
  H16      1.0000 0.50013  0.36051  0.25025  Biso   1.000  H 
  H17      1.0000 0.82827  0.22010  0.76594  Biso   1.000  H 
  H18      1.0000 0.67171  0.72012  0.73406  Biso   1.000  H 
  H19      1.0000 0.82828  0.77989  0.26594  Biso   1.000  H 
  H20      1.0000 0.32837  0.72012  0.76617  Biso   1.000  H 
  O1       1.0000 0.49999  0.56362  0.75005  Biso   1.000  O 
  O2       1.0000 0.57522  0.39678  0.98578  Biso   1.000  O 
  O3       1.0000 0.08638  0.08967  0.15902  Biso   1.000  O 
  O4       1.0000 0.57522  0.60321  0.48579  Biso   1.000  O 
  O5       1.0000 0.92477  0.89679  0.51421  Biso   1.000  O 
  O6       1.0000 0.42477  0.60320  0.01443  Biso   1.000  O 
  O7       1.0000 0.07522  0.89679  0.98557  Biso   1.000  O 
  O8       1.0000 0.92476  0.10320  0.01421  Biso   1.000  O 
  O9       1.0000 0.07522  0.10321  0.48557  Biso   1.000  O 
  O10      1.0000 0.58637  0.41034  0.65920  Biso   1.000  O 
  O11      1.0000 0.49998  0.43638  0.25005  Biso   1.000  O 
  O12      1.0000 0.00001  0.93638  0.24994  Biso   1.000  O 
  O13      1.0000 0.58637  0.58965  0.15920  Biso   1.000  O 
  O14      1.0000 0.91361  0.08964  0.34078  Biso   1.000  O 
  O15      1.0000 0.08639  0.91033  0.65902  Biso   1.000  O 
  O16      1.0000 0.41360  0.41035  0.84097  Biso   1.000  O 
  O17      1.0000 0.91362  0.91035  0.84078  Biso   1.000  O 
  O18      1.0000 0.42477  0.39680  0.51442  Biso   1.000  O 
  O19      1.0000 0.00001  0.06361  0.74993  Biso   1.000  O 
  O20      1.0000 0.41360  0.58965  0.34097  Biso   1.000  O 
