data_image0
_cell_length_a       18.5612
_cell_length_b       11.8991
_cell_length_c       6.66665
_cell_angle_alpha    90.0002
_cell_angle_beta     109.721
_cell_angle_gamma    89.9999

_symmetry_space_group_name_H-M    "P 1"
_symmetry_int_tables_number       1

loop_
  _symmetry_equiv_pos_as_xyz
  'x, y, z'

loop_
  _atom_site_label
  _atom_site_occupancy
  _atom_site_fract_x
  _atom_site_fract_y
  _atom_site_fract_z
  _atom_site_thermal_displace_type
  _atom_site_B_iso_or_equiv
  _atom_site_type_symbol
  Al1      1.0000 0.49999  0.50000  0.50020  Biso   1.000  Al
  Al2      1.0000 0.49999  0.49998  0.00020  Biso   1.000  Al
  Al3      1.0000 0.00000  0.99998  0.49979  Biso   1.000  Al
  Al4      1.0000 1.00000  0.00001  0.99979  Biso   1.000  Al
  C1       1.0000 0.27507  0.29386  0.70692  Biso   1.000  C 
  C2       1.0000 0.27508  0.70616  0.20694  Biso   1.000  C 
  C3       1.0000 0.29392  0.26413  0.36765  Biso   1.000  C 
  C4       1.0000 0.72483  0.29384  0.79308  Biso   1.000  C 
  C5       1.0000 0.20607  0.76412  0.13235  Biso   1.000  C 
  C6       1.0000 0.70613  0.26409  0.13253  Biso   1.000  C 
  C7       1.0000 0.20606  0.23589  0.63232  Biso   1.000  C 
  C8       1.0000 0.72483  0.70616  0.29307  Biso   1.000  C 
  C9       1.0000 0.77515  0.79386  0.70691  Biso   1.000  C 
  C10      1.0000 0.60722  0.62753  0.34688  Biso   1.000  C 
  C11      1.0000 0.29393  0.73588  0.86768  Biso   1.000  C 
  C12      1.0000 0.70613  0.73590  0.63253  Biso   1.000  C 
  C13      1.0000 0.79386  0.76412  0.36745  Biso   1.000  C 
  C14      1.0000 0.39277  0.62751  0.15350  Biso   1.000  C 
  C15      1.0000 0.60722  0.37246  0.84688  Biso   1.000  C 
  C16      1.0000 0.39276  0.37249  0.65349  Biso   1.000  C 
  C17      1.0000 0.89277  0.12751  0.15311  Biso   1.000  C 
  C18      1.0000 0.22492  0.79385  0.79308  Biso   1.000  C 
  C19      1.0000 0.10723  0.87248  0.84651  Biso   1.000  C 
  C20      1.0000 0.77515  0.20613  0.20691  Biso   1.000  C 
  C21      1.0000 0.79385  0.23588  0.86745  Biso   1.000  C 
  C22      1.0000 0.18056  0.19179  0.42498  Biso   1.000  C 
  C23      1.0000 0.22491  0.20616  0.29306  Biso   1.000  C 
  C24      1.0000 0.31942  0.30823  0.57499  Biso   1.000  C 
  C25      1.0000 0.81943  0.80821  0.57479  Biso   1.000  C 
  C26      1.0000 0.68056  0.30819  0.92520  Biso   1.000  C 
  C27      1.0000 0.68056  0.69180  0.42520  Biso   1.000  C 
  C28      1.0000 0.31943  0.69179  0.07502  Biso   1.000  C 
  C29      1.0000 0.18057  0.80822  0.92500  Biso   1.000  C 
  C30      1.0000 0.10722  0.12752  0.34649  Biso   1.000  C 
  C31      1.0000 0.81943  0.19178  0.07479  Biso   1.000  C 
  C32      1.0000 0.89277  0.87248  0.65312  Biso   1.000  C 
  H1       1.0000 0.50012  0.34999  0.25036  Biso   1.000  H 
  H2       1.0000 0.17091  0.22370  0.73252  Biso   1.000  H 
  H3       1.0000 0.70431  0.67060  0.13311  Biso   1.000  H 
  H4       1.0000 0.32907  0.27632  0.26746  Biso   1.000  H 
  H5       1.0000 0.32908  0.72369  0.76748  Biso   1.000  H 
  H6       1.0000 0.82894  0.22371  0.76710  Biso   1.000  H 
  H7       1.0000 0.67105  0.72374  0.73289  Biso   1.000  H 
  H8       1.0000 0.82894  0.77628  0.26708  Biso   1.000  H 
  H9       1.0000 0.67104  0.27626  0.23290  Biso   1.000  H 
  H10      1.0000 0.50012  0.65000  0.75036  Biso   1.000  H 
  H11      1.0000 0.79568  0.82942  0.86687  Biso   1.000  H 
  H12      1.0000 0.79567  0.17057  0.36687  Biso   1.000  H 
  H13      1.0000 0.17092  0.77632  0.23254  Biso   1.000  H 
  H14      1.0000 0.00003  0.84999  0.24977  Biso   1.000  H 
  H15      1.0000 0.29552  0.32942  0.86689  Biso   1.000  H 
  H16      1.0000 0.29553  0.67061  0.36692  Biso   1.000  H 
  H17      1.0000 0.20447  0.82940  0.63311  Biso   1.000  H 
  H18      1.0000 0.00004  0.15001  0.74977  Biso   1.000  H 
  H19      1.0000 0.20446  0.17060  0.13309  Biso   1.000  H 
  H20      1.0000 0.70431  0.32940  0.63311  Biso   1.000  H 
  O1       1.0000 0.91420  0.90746  0.84484  Biso   1.000  O 
  O2       1.0000 0.41419  0.40742  0.84523  Biso   1.000  O 
  O3       1.0000 0.08581  0.90741  0.65477  Biso   1.000  O 
  O4       1.0000 0.91420  0.09253  0.34484  Biso   1.000  O 
  O5       1.0000 0.58579  0.59255  0.15515  Biso   1.000  O 
  O6       1.0000 0.58579  0.40744  0.65515  Biso   1.000  O 
  O7       1.0000 0.00001  0.93129  0.24977  Biso   1.000  O 
  O8       1.0000 0.49999  0.43128  0.25022  Biso   1.000  O 
  O9       1.0000 0.00001  0.06871  0.74977  Biso   1.000  O 
  O10      1.0000 0.07141  0.11194  0.47722  Biso   1.000  O 
  O11      1.0000 0.57143  0.38803  0.97765  Biso   1.000  O 
  O12      1.0000 0.92857  0.11196  0.02235  Biso   1.000  O 
  O13      1.0000 0.07142  0.88807  0.97723  Biso   1.000  O 
  O14      1.0000 0.42858  0.61193  0.02278  Biso   1.000  O 
  O15      1.0000 0.92857  0.88803  0.52235  Biso   1.000  O 
  O16      1.0000 0.57143  0.61196  0.47765  Biso   1.000  O 
  O17      1.0000 0.08580  0.09259  0.15475  Biso   1.000  O 
  O18      1.0000 0.49999  0.56871  0.75023  Biso   1.000  O 
  O19      1.0000 0.42857  0.38807  0.52277  Biso   1.000  O 
  O20      1.0000 0.41419  0.59258  0.34525  Biso   1.000  O 
