data_image0
_cell_length_a       17.1548
_cell_length_b       14.4531
_cell_length_c       6.74073
_cell_angle_alpha    89.9997
_cell_angle_beta     113.367
_cell_angle_gamma    90.0001

_symmetry_space_group_name_H-M    "P 1"
_symmetry_int_tables_number       1

loop_
  _symmetry_equiv_pos_as_xyz
  'x, y, z'

loop_
  _atom_site_label
  _atom_site_occupancy
  _atom_site_fract_x
  _atom_site_fract_y
  _atom_site_fract_z
  _atom_site_thermal_displace_type
  _atom_site_B_iso_or_equiv
  _atom_site_type_symbol
  Al1      1.0000 0.49996  0.49998  0.49996  Biso   1.000  Al
  Al2      1.0000 0.49996  0.50001  0.99998  Biso   1.000  Al
  Al3      1.0000 0.99996  0.00001  0.49996  Biso   1.000  Al
  Al4      1.0000 0.99996  0.99999  0.99996  Biso   1.000  Al
  C1       1.0000 0.29068  0.27308  0.36369  Biso   1.000  C 
  C2       1.0000 0.38562  0.38659  0.63746  Biso   1.000  C 
  C3       1.0000 0.20928  0.77308  0.13627  Biso   1.000  C 
  C4       1.0000 0.70929  0.27306  0.13628  Biso   1.000  C 
  C5       1.0000 0.20927  0.22693  0.63625  Biso   1.000  C 
  C6       1.0000 0.72612  0.29281  0.79860  Biso   1.000  C 
  C7       1.0000 0.61433  0.61343  0.36253  Biso   1.000  C 
  C8       1.0000 0.27385  0.29281  0.70139  Biso   1.000  C 
  C9       1.0000 0.29069  0.72692  0.86370  Biso   1.000  C 
  C10      1.0000 0.70928  0.72694  0.63630  Biso   1.000  C 
  C11      1.0000 0.79070  0.77306  0.36370  Biso   1.000  C 
  C12      1.0000 0.38563  0.61341  0.13745  Biso   1.000  C 
  C13      1.0000 0.72612  0.70718  0.29861  Biso   1.000  C 
  C14      1.0000 0.77386  0.79281  0.70139  Biso   1.000  C 
  C15      1.0000 0.61433  0.38657  0.86252  Biso   1.000  C 
  C16      1.0000 0.27386  0.70720  0.20140  Biso   1.000  C 
  C17      1.0000 0.88562  0.11342  0.13741  Biso   1.000  C 
  C18      1.0000 0.77386  0.20718  0.20136  Biso   1.000  C 
  C19      1.0000 0.79070  0.22694  0.86369  Biso   1.000  C 
  C20      1.0000 0.18470  0.18352  0.43416  Biso   1.000  C 
  C21      1.0000 0.11434  0.88656  0.86252  Biso   1.000  C 
  C22      1.0000 0.31525  0.31648  0.56578  Biso   1.000  C 
  C23      1.0000 0.81526  0.81647  0.56579  Biso   1.000  C 
  C24      1.0000 0.68470  0.68352  0.43421  Biso   1.000  C 
  C25      1.0000 0.22611  0.20720  0.29858  Biso   1.000  C 
  C26      1.0000 0.31526  0.68352  0.06580  Biso   1.000  C 
  C27      1.0000 0.18470  0.81648  0.93418  Biso   1.000  C 
  C28      1.0000 0.11433  0.11344  0.36252  Biso   1.000  C 
  C29      1.0000 0.81527  0.18352  0.06576  Biso   1.000  C 
  C30      1.0000 0.88562  0.88658  0.63743  Biso   1.000  C 
  C31      1.0000 0.68471  0.31647  0.93419  Biso   1.000  C 
  C32      1.0000 0.22611  0.79280  0.79858  Biso   1.000  C 
  H1       1.0000 0.50030  0.62233  0.75028  Biso   1.000  H 
  H2       1.0000 0.70699  0.67274  0.14258  Biso   1.000  H 
  H3       1.0000 0.32318  0.29174  0.25953  Biso   1.000  H 
  H4       1.0000 0.50031  0.37767  0.25028  Biso   1.000  H 
  H5       1.0000 0.82319  0.79171  0.25950  Biso   1.000  H 
  H6       1.0000 0.67679  0.70830  0.74048  Biso   1.000  H 
  H7       1.0000 0.32319  0.70826  0.75951  Biso   1.000  H 
  H8       1.0000 0.67679  0.29170  0.24048  Biso   1.000  H 
  H9       1.0000 0.82320  0.20830  0.75951  Biso   1.000  H 
  H10      1.0000 0.17678  0.20827  0.74045  Biso   1.000  H 
  H11      1.0000 0.00036  0.87768  0.25041  Biso   1.000  H 
  H12      1.0000 0.20699  0.82723  0.64255  Biso   1.000  H 
  H13      1.0000 0.79299  0.82726  0.85739  Biso   1.000  H 
  H14      1.0000 0.29298  0.32724  0.85744  Biso   1.000  H 
  H15      1.0000 0.29299  0.67277  0.35743  Biso   1.000  H 
  H16      1.0000 0.17679  0.79174  0.24046  Biso   1.000  H 
  H17      1.0000 0.00036  0.12232  0.75040  Biso   1.000  H 
  H18      1.0000 0.70699  0.32726  0.64259  Biso   1.000  H 
  H19      1.0000 0.79300  0.17273  0.35739  Biso   1.000  H 
  H20      1.0000 0.20699  0.17277  0.14256  Biso   1.000  H 
  O1       1.0000 0.41689  0.40957  0.50145  Biso   1.000  O 
  O2       1.0000 0.49997  0.44464  0.24996  Biso   1.000  O 
  O3       1.0000 0.90968  0.91708  0.83018  Biso   1.000  O 
  O4       1.0000 0.40966  0.41710  0.83019  Biso   1.000  O 
  O5       1.0000 0.09027  0.91706  0.66977  Biso   1.000  O 
  O6       1.0000 0.90968  0.08292  0.33016  Biso   1.000  O 
  O7       1.0000 0.59028  0.58295  0.16975  Biso   1.000  O 
  O8       1.0000 0.99998  0.94464  0.24997  Biso   1.000  O 
  O9       1.0000 0.59028  0.41705  0.66974  Biso   1.000  O 
  O10      1.0000 0.41689  0.59043  0.00144  Biso   1.000  O 
  O11      1.0000 0.91688  0.09040  0.00142  Biso   1.000  O 
  O12      1.0000 0.08307  0.90957  0.99854  Biso   1.000  O 
  O13      1.0000 0.91689  0.90959  0.50143  Biso   1.000  O 
  O14      1.0000 0.58307  0.59043  0.49854  Biso   1.000  O 
  O15      1.0000 0.09027  0.08295  0.16977  Biso   1.000  O 
  O16      1.0000 0.58306  0.40957  0.99853  Biso   1.000  O 
  O17      1.0000 0.49998  0.55536  0.74996  Biso   1.000  O 
  O18      1.0000 0.99997  0.05536  0.74996  Biso   1.000  O 
  O19      1.0000 0.08307  0.09043  0.49854  Biso   1.000  O 
  O20      1.0000 0.40966  0.58290  0.33019  Biso   1.000  O 
