data_image0
_cell_length_a       19.753
_cell_length_b       6.74688
_cell_length_c       6.65581
_cell_angle_alpha    89.9999
_cell_angle_beta     104.097
_cell_angle_gamma    89.9999

_symmetry_space_group_name_H-M    "P 1"
_symmetry_int_tables_number       1

loop_
  _symmetry_equiv_pos_as_xyz
  'x, y, z'

loop_
  _atom_site_label
  _atom_site_occupancy
  _atom_site_fract_x
  _atom_site_fract_y
  _atom_site_fract_z
  _atom_site_thermal_displace_type
  _atom_site_B_iso_or_equiv
  _atom_site_type_symbol
  Al1      1.0000 0.50000  0.50000  0.50000  Biso   1.000  Al
  Al2      1.0000 0.50000  0.50000  1.00000  Biso   1.000  Al
  Al3      1.0000 1.00000  0.00000  0.50000  Biso   1.000  Al
  Al4      1.0000 1.00000  0.00000  1.00000  Biso   1.000  Al
  C1       1.0000 0.89748  0.80586  0.67637  Biso   1.000  C 
  C2       1.0000 0.79737  0.27455  0.87620  Biso   1.000  C 
  C3       1.0000 0.22615  0.79136  0.78856  Biso   1.000  C 
  C4       1.0000 0.22615  0.20865  0.28857  Biso   1.000  C 
  C5       1.0000 0.77385  0.20865  0.21144  Biso   1.000  C 
  C6       1.0000 0.82166  0.76713  0.58816  Biso   1.000  C 
  C7       1.0000 0.17834  0.23288  0.41184  Biso   1.000  C 
  C8       1.0000 0.10252  0.19415  0.32363  Biso   1.000  C 
  C9       1.0000 0.82166  0.23288  0.08816  Biso   1.000  C 
  C10      1.0000 0.32166  0.26713  0.58816  Biso   1.000  C 
  C11      1.0000 0.67834  0.26712  0.91184  Biso   1.000  C 
  C12      1.0000 0.67834  0.73288  0.41184  Biso   1.000  C 
  C13      1.0000 0.32166  0.73288  0.08816  Biso   1.000  C 
  C14      1.0000 0.17834  0.76713  0.91184  Biso   1.000  C 
  C15      1.0000 0.89748  0.19415  0.17637  Biso   1.000  C 
  C16      1.0000 0.10252  0.80586  0.82363  Biso   1.000  C 
  C17      1.0000 0.60252  0.30585  0.82363  Biso   1.000  C 
  C18      1.0000 0.79737  0.72545  0.37620  Biso   1.000  C 
  C19      1.0000 0.27385  0.70865  0.21144  Biso   1.000  C 
  C20      1.0000 0.72615  0.70865  0.28856  Biso   1.000  C 
  C21      1.0000 0.39748  0.30586  0.67637  Biso   1.000  C 
  C22      1.0000 0.27385  0.29136  0.71144  Biso   1.000  C 
  C23      1.0000 0.70263  0.22545  0.12380  Biso   1.000  C 
  C24      1.0000 0.29737  0.22545  0.37620  Biso   1.000  C 
  C25      1.0000 0.72615  0.29135  0.78856  Biso   1.000  C 
  C26      1.0000 0.70263  0.77455  0.62380  Biso   1.000  C 
  C27      1.0000 0.20263  0.72545  0.12380  Biso   1.000  C 
  C28      1.0000 0.39748  0.69415  0.17637  Biso   1.000  C 
  C29      1.0000 0.20263  0.27455  0.62379  Biso   1.000  C 
  C30      1.0000 0.77385  0.79135  0.71144  Biso   1.000  C 
  C31      1.0000 0.60252  0.69415  0.32363  Biso   1.000  C 
  C32      1.0000 0.29737  0.77455  0.87620  Biso   1.000  C 
  H1       1.0000 0.29337  0.32527  0.87524  Biso   1.000  H 
  H2       1.0000 0.16487  0.70909  0.21773  Biso   1.000  H 
  H3       1.0000 0.79337  0.82527  0.87524  Biso   1.000  H 
  H4       1.0000 1.00000  0.73292  0.25000  Biso   1.000  H 
  H5       1.0000 1.00000  0.26709  0.75000  Biso   1.000  H 
  H6       1.0000 0.79337  0.17473  0.37524  Biso   1.000  H 
  H7       1.0000 0.20663  0.82527  0.62476  Biso   1.000  H 
  H8       1.0000 0.70663  0.32527  0.62476  Biso   1.000  H 
  H9       1.0000 0.20663  0.17473  0.12476  Biso   1.000  H 
  H10      1.0000 0.29337  0.67473  0.37524  Biso   1.000  H 
  H11      1.0000 0.50000  0.23292  0.25000  Biso   1.000  H 
  H12      1.0000 0.33513  0.79091  0.78227  Biso   1.000  H 
  H13      1.0000 0.33513  0.20909  0.28228  Biso   1.000  H 
  H14      1.0000 0.50000  0.76708  0.75000  Biso   1.000  H 
  H15      1.0000 0.16487  0.29091  0.71773  Biso   1.000  H 
  H16      1.0000 0.70663  0.67473  0.12476  Biso   1.000  H 
  H17      1.0000 0.83513  0.70909  0.28227  Biso   1.000  H 
  H18      1.0000 0.66487  0.20909  0.21773  Biso   1.000  H 
  H19      1.0000 0.66487  0.79091  0.71773  Biso   1.000  H 
  H20      1.0000 0.83513  0.29091  0.78227  Biso   1.000  H 
  O1       1.0000 0.93773  0.79984  0.55246  Biso   1.000  O 
  O2       1.0000 0.43773  0.70016  0.05246  Biso   1.000  O 
  O3       1.0000 0.06227  0.79984  0.94754  Biso   1.000  O 
  O4       1.0000 0.06226  0.20016  0.44754  Biso   1.000  O 
  O5       1.0000 0.93773  0.20016  0.05246  Biso   1.000  O 
  O6       1.0000 0.43773  0.29984  0.55246  Biso   1.000  O 
  O7       1.0000 0.56227  0.29984  0.94754  Biso   1.000  O 
  O8       1.0000 0.56227  0.70016  0.44754  Biso   1.000  O 
  O9       1.0000 0.91713  0.85141  0.86746  Biso   1.000  O 
  O10      1.0000 0.50000  0.62359  0.75000  Biso   1.000  O 
  O11      1.0000 0.91713  0.14860  0.36746  Biso   1.000  O 
  O12      1.0000 0.41713  0.35141  0.86746  Biso   1.000  O 
  O13      1.0000 0.50000  0.37641  0.25000  Biso   1.000  O 
  O14      1.0000 1.00000  0.12359  0.75000  Biso   1.000  O 
  O15      1.0000 1.00000  0.87641  0.25000  Biso   1.000  O 
  O16      1.0000 0.58287  0.35140  0.63254  Biso   1.000  O 
  O17      1.0000 0.58287  0.64859  0.13254  Biso   1.000  O 
  O18      1.0000 0.08287  0.85141  0.63254  Biso   1.000  O 
  O19      1.0000 0.08287  0.14859  0.13254  Biso   1.000  O 
  O20      1.0000 0.41713  0.64859  0.36746  Biso   1.000  O 
