data_image0
_cell_length_a       18.9225
_cell_length_b       11.1089
_cell_length_c       6.66363
_cell_angle_alpha    89.999
_cell_angle_beta     108.888
_cell_angle_gamma    90.0003

_symmetry_space_group_name_H-M    "P 1"
_symmetry_int_tables_number       1

loop_
  _symmetry_equiv_pos_as_xyz
  'x, y, z'

loop_
  _atom_site_label
  _atom_site_occupancy
  _atom_site_fract_x
  _atom_site_fract_y
  _atom_site_fract_z
  _atom_site_thermal_displace_type
  _atom_site_B_iso_or_equiv
  _atom_site_type_symbol
  Al1      1.0000 0.50003  0.49994  0.49952  Biso   1.000  Al
  Al2      1.0000 0.50003  0.50005  0.99952  Biso   1.000  Al
  Al3      1.0000 0.99997  0.00006  0.50048  Biso   1.000  Al
  Al4      1.0000 0.99997  0.99996  0.00048  Biso   1.000  Al
  C1       1.0000 0.27509  0.29611  0.70652  Biso   1.000  C 
  C2       1.0000 0.27509  0.70389  0.20651  Biso   1.000  C 
  C3       1.0000 0.29481  0.25802  0.36968  Biso   1.000  C 
  C4       1.0000 0.72501  0.29596  0.79335  Biso   1.000  C 
  C5       1.0000 0.20519  0.75802  0.13034  Biso   1.000  C 
  C6       1.0000 0.70508  0.25813  0.13001  Biso   1.000  C 
  C7       1.0000 0.20519  0.24198  0.63034  Biso   1.000  C 
  C8       1.0000 0.72502  0.70402  0.29336  Biso   1.000  C 
  C9       1.0000 0.77499  0.79596  0.70665  Biso   1.000  C 
  C10      1.0000 0.60576  0.63383  0.34328  Biso   1.000  C 
  C11      1.0000 0.29481  0.74198  0.86966  Biso   1.000  C 
  C12      1.0000 0.70509  0.74184  0.63002  Biso   1.000  C 
  C13      1.0000 0.79492  0.75813  0.36999  Biso   1.000  C 
  C14      1.0000 0.39425  0.63378  0.15586  Biso   1.000  C 
  C15      1.0000 0.60575  0.36616  0.84328  Biso   1.000  C 
  C16      1.0000 0.39425  0.36621  0.65587  Biso   1.000  C 
  C17      1.0000 0.89424  0.13384  0.15671  Biso   1.000  C 
  C18      1.0000 0.22490  0.79611  0.79348  Biso   1.000  C 
  C19      1.0000 0.10574  0.86622  0.84413  Biso   1.000  C 
  C20      1.0000 0.77497  0.20402  0.20663  Biso   1.000  C 
  C21      1.0000 0.79491  0.24185  0.86998  Biso   1.000  C 
  C22      1.0000 0.17968  0.19564  0.42339  Biso   1.000  C 
  C23      1.0000 0.22491  0.20389  0.29349  Biso   1.000  C 
  C24      1.0000 0.32032  0.30436  0.57662  Biso   1.000  C 
  C25      1.0000 0.82031  0.80433  0.57707  Biso   1.000  C 
  C26      1.0000 0.67969  0.30432  0.92293  Biso   1.000  C 
  C27      1.0000 0.67970  0.69566  0.42296  Biso   1.000  C 
  C28      1.0000 0.32031  0.69563  0.07660  Biso   1.000  C 
  C29      1.0000 0.17968  0.80437  0.92339  Biso   1.000  C 
  C30      1.0000 0.10574  0.13380  0.34413  Biso   1.000  C 
  C31      1.0000 0.82030  0.19566  0.07704  Biso   1.000  C 
  C32      1.0000 0.89424  0.86617  0.65672  Biso   1.000  C 
  H1       1.0000 0.50009  0.33939  0.24940  Biso   1.000  H 
  H2       1.0000 0.16937  0.23455  0.72905  Biso   1.000  H 
  H3       1.0000 0.70469  0.66673  0.13363  Biso   1.000  H 
  H4       1.0000 0.33063  0.26545  0.27097  Biso   1.000  H 
  H5       1.0000 0.33062  0.73454  0.77094  Biso   1.000  H 
  H6       1.0000 0.83082  0.23433  0.77154  Biso   1.000  H 
  H7       1.0000 0.66918  0.73432  0.72845  Biso   1.000  H 
  H8       1.0000 0.83083  0.76566  0.27157  Biso   1.000  H 
  H9       1.0000 0.66917  0.26565  0.22844  Biso   1.000  H 
  H10      1.0000 0.50009  0.66062  0.74939  Biso   1.000  H 
  H11      1.0000 0.79532  0.83325  0.86639  Biso   1.000  H 
  H12      1.0000 0.79531  0.16672  0.36637  Biso   1.000  H 
  H13      1.0000 0.16938  0.76546  0.22906  Biso   1.000  H 
  H14      1.0000 0.99998  0.83940  0.25065  Biso   1.000  H 
  H15      1.0000 0.29552  0.33351  0.86617  Biso   1.000  H 
  H16      1.0000 0.29552  0.66648  0.36616  Biso   1.000  H 
  H17      1.0000 0.20448  0.83352  0.63384  Biso   1.000  H 
  H18      1.0000 0.99995  0.16063  0.75061  Biso   1.000  H 
  H19      1.0000 0.20449  0.16648  0.13385  Biso   1.000  H 
  H20      1.0000 0.70468  0.33326  0.63361  Biso   1.000  H 
  O1       1.0000 0.91606  0.90106  0.84914  Biso   1.000  O 
  O2       1.0000 0.41612  0.40121  0.84823  Biso   1.000  O 
  O3       1.0000 0.08387  0.90121  0.65177  Biso   1.000  O 
  O4       1.0000 0.91606  0.09896  0.34914  Biso   1.000  O 
  O5       1.0000 0.58394  0.59895  0.15085  Biso   1.000  O 
  O6       1.0000 0.58393  0.40103  0.65085  Biso   1.000  O 
  O7       1.0000 0.99995  0.92646  0.25048  Biso   1.000  O 
  O8       1.0000 0.50005  0.42645  0.24952  Biso   1.000  O 
  O9       1.0000 0.99995  0.07357  0.75048  Biso   1.000  O 
  O10      1.0000 0.07003  0.11936  0.47516  Biso   1.000  O 
  O11      1.0000 0.57000  0.38071  0.97416  Biso   1.000  O 
  O12      1.0000 0.92999  0.11930  0.02583  Biso   1.000  O 
  O13      1.0000 0.07003  0.88067  0.97517  Biso   1.000  O 
  O14      1.0000 0.42997  0.61935  0.02484  Biso   1.000  O 
  O15      1.0000 0.92999  0.88072  0.52584  Biso   1.000  O 
  O16      1.0000 0.57001  0.61928  0.47416  Biso   1.000  O 
  O17      1.0000 0.08387  0.09882  0.15176  Biso   1.000  O 
  O18      1.0000 0.50005  0.57356  0.74951  Biso   1.000  O 
  O19      1.0000 0.42997  0.38065  0.52485  Biso   1.000  O 
  O20      1.0000 0.41612  0.59879  0.34822  Biso   1.000  O 
