data_image0
_cell_length_a       13.6152
_cell_length_b       17.4802
_cell_length_c       6.7087
_cell_angle_alpha    90.001
_cell_angle_beta     62.0487
_cell_angle_gamma    90.0008

_symmetry_space_group_name_H-M    "P 1"
_symmetry_int_tables_number       1

loop_
  _symmetry_equiv_pos_as_xyz
  'x, y, z'

loop_
  _atom_site_label
  _atom_site_occupancy
  _atom_site_fract_x
  _atom_site_fract_y
  _atom_site_fract_z
  _atom_site_thermal_displace_type
  _atom_site_B_iso_or_equiv
  _atom_site_type_symbol
  Al1      1.0000 0.99716  1.00000  0.99777  Biso   1.000  Al
  Al2      1.0000 0.49714  0.50000  0.99777  Biso   1.000  Al
  Al3      1.0000 0.00042  1.00000  0.49652  Biso   1.000  Al
  Al4      1.0000 0.50041  0.50000  0.49652  Biso   1.000  Al
  C1       1.0000 0.12594  0.89132  0.62643  Biso   1.000  C 
  C2       1.0000 0.24565  0.79122  0.68695  Biso   1.000  C 
  C3       1.0000 0.19123  0.22534  0.39000  Biso   1.000  C 
  C4       1.0000 0.62594  0.60867  0.62642  Biso   1.000  C 
  C5       1.0000 0.68884  0.68137  0.56821  Biso   1.000  C 
  C6       1.0000 0.18883  0.81863  0.56822  Biso   1.000  C 
  C7       1.0000 0.80420  0.22138  0.61547  Biso   1.000  C 
  C8       1.0000 0.74937  0.20642  0.32140  Biso   1.000  C 
  C9       1.0000 0.74936  0.79358  0.32141  Biso   1.000  C 
  C10      1.0000 0.69124  0.27465  0.38999  Biso   1.000  C 
  C11      1.0000 0.37175  0.60707  0.36916  Biso   1.000  C 
  C12      1.0000 0.30674  0.67991  0.43645  Biso   1.000  C 
  C13      1.0000 0.69123  0.72534  0.39000  Biso   1.000  C 
  C14      1.0000 0.12594  0.10867  0.62643  Biso   1.000  C 
  C15      1.0000 0.24934  0.29357  0.32140  Biso   1.000  C 
  C16      1.0000 0.30420  0.72137  0.61545  Biso   1.000  C 
  C17      1.0000 0.87176  0.10706  0.36918  Biso   1.000  C 
  C18      1.0000 0.18884  0.18137  0.56821  Biso   1.000  C 
  C19      1.0000 0.74565  0.29122  0.68696  Biso   1.000  C 
  C20      1.0000 0.74565  0.70878  0.68696  Biso   1.000  C 
  C21      1.0000 0.30420  0.27863  0.61544  Biso   1.000  C 
  C22      1.0000 0.68884  0.31863  0.56820  Biso   1.000  C 
  C23      1.0000 0.62593  0.39132  0.62641  Biso   1.000  C 
  C24      1.0000 0.24566  0.20878  0.68695  Biso   1.000  C 
  C25      1.0000 0.30674  0.32008  0.43644  Biso   1.000  C 
  C26      1.0000 0.87175  0.89293  0.36918  Biso   1.000  C 
  C27      1.0000 0.80674  0.82009  0.43647  Biso   1.000  C 
  C28      1.0000 0.80420  0.77862  0.61547  Biso   1.000  C 
  C29      1.0000 0.37174  0.39293  0.36916  Biso   1.000  C 
  C30      1.0000 0.24935  0.70642  0.32140  Biso   1.000  C 
  C31      1.0000 0.19123  0.77466  0.39000  Biso   1.000  C 
  C32      1.0000 0.80675  0.17991  0.43647  Biso   1.000  C 
  H1       1.0000 0.85099  0.00005  0.88489  Biso   1.000  H 
  H2       1.0000 0.35099  0.50001  0.88486  Biso   1.000  H 
  H3       1.0000 0.69034  0.37226  0.93429  Biso   1.000  H 
  H4       1.0000 0.34853  0.30092  0.70271  Biso   1.000  H 
  H5       1.0000 0.14798  0.00002  0.10441  Biso   1.000  H 
  H6       1.0000 0.84853  0.19910  0.70274  Biso   1.000  H 
  H7       1.0000 0.28180  0.80518  0.94960  Biso   1.000  H 
  H8       1.0000 0.14354  0.20404  0.30891  Biso   1.000  H 
  H9       1.0000 0.28180  0.19483  0.94961  Biso   1.000  H 
  H10      1.0000 0.64797  0.50001  0.10440  Biso   1.000  H 
  H11      1.0000 0.19036  0.12776  0.93430  Biso   1.000  H 
  H12      1.0000 0.84852  0.80091  0.70275  Biso   1.000  H 
  H13      1.0000 0.64356  0.29594  0.30888  Biso   1.000  H 
  H14      1.0000 0.64356  0.70405  0.30889  Biso   1.000  H 
  H15      1.0000 0.24995  0.67254  0.18460  Biso   1.000  H 
  H16      1.0000 0.24995  0.32746  0.18461  Biso   1.000  H 
  H17      1.0000 0.19036  0.87225  0.93429  Biso   1.000  H 
  H18      1.0000 0.14355  0.79595  0.30890  Biso   1.000  H 
  H19      1.0000 0.74999  0.17253  0.18459  Biso   1.000  H 
  H20      1.0000 0.34853  0.69909  0.70272  Biso   1.000  H 
  H21      1.0000 0.78179  0.30520  0.94962  Biso   1.000  H 
  H22      1.0000 0.74997  0.82747  0.18461  Biso   1.000  H 
  H23      1.0000 0.69034  0.62775  0.93430  Biso   1.000  H 
  H24      1.0000 0.78178  0.69481  0.94964  Biso   1.000  H 
  N1       1.0000 0.74803  0.33047  0.86019  Biso   1.000  N 
  N2       1.0000 0.74803  0.66954  0.86019  Biso   1.000  N 
  N3       1.0000 0.24805  0.16954  0.86018  Biso   1.000  N 
  N4       1.0000 0.24805  0.83046  0.86017  Biso   1.000  N 
  O1       1.0000 0.10088  0.07962  0.48140  Biso   1.000  O 
  O2       1.0000 0.89960  0.07851  0.51003  Biso   1.000  O 
  O3       1.0000 0.93143  1.00000  0.81066  Biso   1.000  O 
  O4       1.0000 0.89540  0.92097  0.17630  Biso   1.000  O 
  O5       1.0000 0.56750  0.50000  0.18058  Biso   1.000  O 
  O6       1.0000 0.10016  0.92146  0.81951  Biso   1.000  O 
  O7       1.0000 0.06751  1.00000  0.18058  Biso   1.000  O 
  O8       1.0000 0.60088  0.57963  0.48138  Biso   1.000  O 
  O9       1.0000 0.10087  0.92036  0.48141  Biso   1.000  O 
  O10      1.0000 0.39956  0.42150  0.51001  Biso   1.000  O 
  O11      1.0000 0.89957  0.92150  0.51005  Biso   1.000  O 
  O12      1.0000 0.89538  0.07901  0.17633  Biso   1.000  O 
  O13      1.0000 0.60087  0.42036  0.48138  Biso   1.000  O 
  O14      1.0000 0.39538  0.42098  0.17628  Biso   1.000  O 
  O15      1.0000 0.10015  0.07855  0.81953  Biso   1.000  O 
  O16      1.0000 0.39539  0.57902  0.17629  Biso   1.000  O 
  O17      1.0000 0.39957  0.57850  0.51002  Biso   1.000  O 
  O18      1.0000 0.43143  0.50000  0.81065  Biso   1.000  O 
  O19      1.0000 0.60015  0.57854  0.81951  Biso   1.000  O 
  O20      1.0000 0.60015  0.42146  0.81949  Biso   1.000  O 
