data_image0
_cell_length_a       11.0465
_cell_length_b       18.904
_cell_length_c       6.71329
_cell_angle_alpha    90.004
_cell_angle_beta     53.7665
_cell_angle_gamma    90.0036

_symmetry_space_group_name_H-M    "P 1"
_symmetry_int_tables_number       1

loop_
  _symmetry_equiv_pos_as_xyz
  'x, y, z'

loop_
  _atom_site_label
  _atom_site_occupancy
  _atom_site_fract_x
  _atom_site_fract_y
  _atom_site_fract_z
  _atom_site_thermal_displace_type
  _atom_site_B_iso_or_equiv
  _atom_site_type_symbol
  Al1      1.0000 0.99428  0.99999  0.00183  Biso   1.000  Al
  Al2      1.0000 0.49426  0.50000  0.00175  Biso   1.000  Al
  Al3      1.0000 0.99526  0.99999  0.50277  Biso   1.000  Al
  Al4      1.0000 0.49531  0.49999  0.50258  Biso   1.000  Al
  C1       1.0000 0.15170  0.89575  0.59968  Biso   1.000  C 
  C2       1.0000 0.26018  0.78807  0.67183  Biso   1.000  C 
  C3       1.0000 0.18496  0.21906  0.39489  Biso   1.000  C 
  C4       1.0000 0.65180  0.60423  0.59954  Biso   1.000  C 
  C5       1.0000 0.70190  0.67870  0.55359  Biso   1.000  C 
  C6       1.0000 0.20183  0.82128  0.55370  Biso   1.000  C 
  C7       1.0000 0.79870  0.21565  0.62223  Biso   1.000  C 
  C8       1.0000 0.72544  0.21026  0.34527  Biso   1.000  C 
  C9       1.0000 0.72543  0.78971  0.34523  Biso   1.000  C 
  C10      1.0000 0.68498  0.28090  0.39485  Biso   1.000  C 
  C11      1.0000 0.33696  0.60271  0.40575  Biso   1.000  C 
  C12      1.0000 0.28328  0.67758  0.46137  Biso   1.000  C 
  C13      1.0000 0.68499  0.71906  0.39483  Biso   1.000  C 
  C14      1.0000 0.15174  0.10423  0.59968  Biso   1.000  C 
  C15      1.0000 0.22545  0.28970  0.34518  Biso   1.000  C 
  C16      1.0000 0.29876  0.71565  0.62213  Biso   1.000  C 
  C17      1.0000 0.83690  0.10270  0.40592  Biso   1.000  C 
  C18      1.0000 0.20185  0.17871  0.55368  Biso   1.000  C 
  C19      1.0000 0.76019  0.28809  0.67182  Biso   1.000  C 
  C20      1.0000 0.76021  0.71192  0.67179  Biso   1.000  C 
  C21      1.0000 0.29875  0.28437  0.62209  Biso   1.000  C 
  C22      1.0000 0.70187  0.32128  0.55362  Biso   1.000  C 
  C23      1.0000 0.65175  0.39575  0.59953  Biso   1.000  C 
  C24      1.0000 0.26020  0.21193  0.67180  Biso   1.000  C 
  C25      1.0000 0.28328  0.32241  0.46133  Biso   1.000  C 
  C26      1.0000 0.83690  0.89728  0.40585  Biso   1.000  C 
  C27      1.0000 0.78323  0.82241  0.46145  Biso   1.000  C 
  C28      1.0000 0.79871  0.78436  0.62218  Biso   1.000  C 
  C29      1.0000 0.33695  0.39728  0.40568  Biso   1.000  C 
  C30      1.0000 0.22545  0.71027  0.34521  Biso   1.000  C 
  C31      1.0000 0.18495  0.78091  0.39490  Biso   1.000  C 
  C32      1.0000 0.78323  0.17757  0.46152  Biso   1.000  C 
  H1       1.0000 0.79506  0.00021  0.94629  Biso   1.000  H 
  H2       1.0000 0.29511  0.50011  0.94613  Biso   1.000  H 
  H3       1.0000 0.73501  0.37159  0.88677  Biso   1.000  H 
  H4       1.0000 0.34311  0.31113  0.71019  Biso   1.000  H 
  H5       1.0000 0.19618  0.00006  0.05768  Biso   1.000  H 
  H6       1.0000 0.84304  0.18890  0.71037  Biso   1.000  H 
  H7       1.0000 0.32113  0.79673  0.90692  Biso   1.000  H 
  H8       1.0000 0.13559  0.19266  0.31449  Biso   1.000  H 
  H9       1.0000 0.32114  0.20331  0.90691  Biso   1.000  H 
  H10      1.0000 0.69620  0.50006  0.05750  Biso   1.000  H 
  H11      1.0000 0.23497  0.12847  0.88690  Biso   1.000  H 
  H12      1.0000 0.84305  0.81112  0.71032  Biso   1.000  H 
  H13      1.0000 0.63564  0.30728  0.31438  Biso   1.000  H 
  H14      1.0000 0.63564  0.69267  0.31440  Biso   1.000  H 
  H15      1.0000 0.21141  0.67958  0.22288  Biso   1.000  H 
  H16      1.0000 0.21138  0.32037  0.22285  Biso   1.000  H 
  H17      1.0000 0.23495  0.87156  0.88691  Biso   1.000  H 
  H18      1.0000 0.13558  0.80729  0.31450  Biso   1.000  H 
  H19      1.0000 0.71137  0.17955  0.22297  Biso   1.000  H 
  H20      1.0000 0.34313  0.68889  0.71019  Biso   1.000  H 
  H21      1.0000 0.82117  0.29676  0.90686  Biso   1.000  H 
  H22      1.0000 0.71135  0.82040  0.22293  Biso   1.000  H 
  H23      1.0000 0.73501  0.62844  0.88679  Biso   1.000  H 
  H24      1.0000 0.82116  0.70328  0.90686  Biso   1.000  H 
  N1       1.0000 0.78355  0.32340  0.82273  Biso   1.000  N 
  N2       1.0000 0.78358  0.67663  0.82269  Biso   1.000  N 
  N3       1.0000 0.28354  0.17666  0.82276  Biso   1.000  N 
  N4       1.0000 0.28350  0.82337  0.82278  Biso   1.000  N 
  O1       1.0000 0.12809  0.07485  0.45415  Biso   1.000  O 
  O2       1.0000 0.86039  0.07305  0.55056  Biso   1.000  O 
  O3       1.0000 0.90368  1.00000  0.84108  Biso   1.000  O 
  O4       1.0000 0.86002  0.92567  0.21373  Biso   1.000  O 
  O5       1.0000 0.58759  0.49999  0.16165  Biso   1.000  O 
  O6       1.0000 0.13216  0.92711  0.78679  Biso   1.000  O 
  O7       1.0000 0.08757  0.99999  0.16182  Biso   1.000  O 
  O8       1.0000 0.62818  0.57485  0.45397  Biso   1.000  O 
  O9       1.0000 0.12802  0.92511  0.45418  Biso   1.000  O 
  O10      1.0000 0.36042  0.42695  0.55032  Biso   1.000  O 
  O11      1.0000 0.86038  0.92694  0.55049  Biso   1.000  O 
  O12      1.0000 0.86000  0.07429  0.21381  Biso   1.000  O 
  O13      1.0000 0.62810  0.42511  0.45399  Biso   1.000  O 
  O14      1.0000 0.36006  0.42567  0.21356  Biso   1.000  O 
  O15      1.0000 0.13217  0.07288  0.78681  Biso   1.000  O 
  O16      1.0000 0.36002  0.57430  0.21368  Biso   1.000  O 
  O17      1.0000 0.36047  0.57306  0.55034  Biso   1.000  O 
  O18      1.0000 0.40372  0.50000  0.84090  Biso   1.000  O 
  O19      1.0000 0.63219  0.57289  0.78672  Biso   1.000  O 
  O20      1.0000 0.63221  0.42711  0.78663  Biso   1.000  O 
