data_image0
_cell_length_a       13.5181
_cell_length_b       17.543
_cell_length_c       6.70716
_cell_angle_alpha    90.0013
_cell_angle_beta     61.8561
_cell_angle_gamma    90.0007

_symmetry_space_group_name_H-M    "P 1"
_symmetry_int_tables_number       1

loop_
  _symmetry_equiv_pos_as_xyz
  'x, y, z'

loop_
  _atom_site_label
  _atom_site_occupancy
  _atom_site_fract_x
  _atom_site_fract_y
  _atom_site_fract_z
  _atom_site_thermal_displace_type
  _atom_site_B_iso_or_equiv
  _atom_site_type_symbol
  Al1      1.0000 0.99690  1.00000  0.99810  Biso   1.000  Al
  Al2      1.0000 0.49690  0.49999  0.99813  Biso   1.000  Al
  Al3      1.0000 0.00003  0.99999  0.49707  Biso   1.000  Al
  Al4      1.0000 0.50003  0.50000  0.49706  Biso   1.000  Al
  C1       1.0000 0.12650  0.89161  0.62598  Biso   1.000  C 
  C2       1.0000 0.24621  0.79121  0.68637  Biso   1.000  C 
  C3       1.0000 0.19092  0.22498  0.39020  Biso   1.000  C 
  C4       1.0000 0.62649  0.60839  0.62598  Biso   1.000  C 
  C5       1.0000 0.68910  0.68116  0.56795  Biso   1.000  C 
  C6       1.0000 0.18911  0.81884  0.56794  Biso   1.000  C 
  C7       1.0000 0.80426  0.22122  0.61534  Biso   1.000  C 
  C8       1.0000 0.74872  0.20669  0.32181  Biso   1.000  C 
  C9       1.0000 0.74871  0.79330  0.32182  Biso   1.000  C 
  C10      1.0000 0.69093  0.27501  0.39019  Biso   1.000  C 
  C11      1.0000 0.37078  0.60689  0.37010  Biso   1.000  C 
  C12      1.0000 0.30623  0.67988  0.43684  Biso   1.000  C 
  C13      1.0000 0.69092  0.72498  0.39020  Biso   1.000  C 
  C14      1.0000 0.12650  0.10838  0.62599  Biso   1.000  C 
  C15      1.0000 0.24872  0.29330  0.32181  Biso   1.000  C 
  C16      1.0000 0.30426  0.72122  0.61533  Biso   1.000  C 
  C17      1.0000 0.87078  0.10689  0.37012  Biso   1.000  C 
  C18      1.0000 0.18910  0.18115  0.56796  Biso   1.000  C 
  C19      1.0000 0.74621  0.29122  0.68636  Biso   1.000  C 
  C20      1.0000 0.74619  0.70879  0.68639  Biso   1.000  C 
  C21      1.0000 0.30426  0.27878  0.61533  Biso   1.000  C 
  C22      1.0000 0.68912  0.31884  0.56793  Biso   1.000  C 
  C23      1.0000 0.62650  0.39161  0.62597  Biso   1.000  C 
  C24      1.0000 0.24621  0.20879  0.68638  Biso   1.000  C 
  C25      1.0000 0.30623  0.32011  0.43683  Biso   1.000  C 
  C26      1.0000 0.87078  0.89311  0.37010  Biso   1.000  C 
  C27      1.0000 0.80622  0.82011  0.43685  Biso   1.000  C 
  C28      1.0000 0.80424  0.77878  0.61535  Biso   1.000  C 
  C29      1.0000 0.37078  0.39310  0.37009  Biso   1.000  C 
  C30      1.0000 0.24872  0.70669  0.32182  Biso   1.000  C 
  C31      1.0000 0.19092  0.77501  0.39020  Biso   1.000  C 
  C32      1.0000 0.80623  0.17989  0.43685  Biso   1.000  C 
  H1       1.0000 0.84941  0.00005  0.88650  Biso   1.000  H 
  H2       1.0000 0.34942  0.50001  0.88645  Biso   1.000  H 
  H3       1.0000 0.69181  0.37237  0.93297  Biso   1.000  H 
  H4       1.0000 0.34872  0.30124  0.70251  Biso   1.000  H 
  H5       1.0000 0.14902  0.00002  0.10399  Biso   1.000  H 
  H6       1.0000 0.84872  0.19877  0.70253  Biso   1.000  H 
  H7       1.0000 0.28324  0.80494  0.94803  Biso   1.000  H 
  H8       1.0000 0.14301  0.20348  0.30934  Biso   1.000  H 
  H9       1.0000 0.28324  0.19507  0.94803  Biso   1.000  H 
  H10      1.0000 0.64903  0.50001  0.10394  Biso   1.000  H 
  H11      1.0000 0.19181  0.12764  0.93298  Biso   1.000  H 
  H12      1.0000 0.84870  0.80125  0.70253  Biso   1.000  H 
  H13      1.0000 0.64302  0.29651  0.30932  Biso   1.000  H 
  H14      1.0000 0.64300  0.70348  0.30934  Biso   1.000  H 
  H15      1.0000 0.24887  0.67294  0.18540  Biso   1.000  H 
  H16      1.0000 0.24887  0.32704  0.18540  Biso   1.000  H 
  H17      1.0000 0.19181  0.87236  0.93298  Biso   1.000  H 
  H18      1.0000 0.14301  0.79651  0.30933  Biso   1.000  H 
  H19      1.0000 0.74888  0.17294  0.18540  Biso   1.000  H 
  H20      1.0000 0.34872  0.69876  0.70252  Biso   1.000  H 
  H21      1.0000 0.78323  0.30495  0.94804  Biso   1.000  H 
  H22      1.0000 0.74886  0.82705  0.18540  Biso   1.000  H 
  H23      1.0000 0.69179  0.62764  0.93299  Biso   1.000  H 
  H24      1.0000 0.78322  0.69507  0.94805  Biso   1.000  H 
  N1       1.0000 0.74938  0.33034  0.85880  Biso   1.000  N 
  N2       1.0000 0.74936  0.66967  0.85883  Biso   1.000  N 
  N3       1.0000 0.24938  0.16967  0.85881  Biso   1.000  N 
  N4       1.0000 0.24938  0.83034  0.85881  Biso   1.000  N 
  O1       1.0000 0.10139  0.07933  0.48101  Biso   1.000  O 
  O2       1.0000 0.89831  0.07821  0.51134  Biso   1.000  O 
  O3       1.0000 0.93057  1.00000  0.81163  Biso   1.000  O 
  O4       1.0000 0.89440  0.92117  0.17725  Biso   1.000  O 
  O5       1.0000 0.56784  0.50000  0.18050  Biso   1.000  O 
  O6       1.0000 0.10093  0.92179  0.81891  Biso   1.000  O 
  O7       1.0000 0.06783  1.00000  0.18054  Biso   1.000  O 
  O8       1.0000 0.60140  0.57933  0.48098  Biso   1.000  O 
  O9       1.0000 0.10138  0.92066  0.48101  Biso   1.000  O 
  O10      1.0000 0.39832  0.42179  0.51130  Biso   1.000  O 
  O11      1.0000 0.89831  0.92179  0.51132  Biso   1.000  O 
  O12      1.0000 0.89441  0.07883  0.17726  Biso   1.000  O 
  O13      1.0000 0.60140  0.42066  0.48097  Biso   1.000  O 
  O14      1.0000 0.39441  0.42117  0.17725  Biso   1.000  O 
  O15      1.0000 0.10094  0.07820  0.81891  Biso   1.000  O 
  O16      1.0000 0.39440  0.57882  0.17726  Biso   1.000  O 
  O17      1.0000 0.39832  0.57821  0.51131  Biso   1.000  O 
  O18      1.0000 0.43058  0.49999  0.81160  Biso   1.000  O 
  O19      1.0000 0.60092  0.57820  0.81892  Biso   1.000  O 
  O20      1.0000 0.60093  0.42179  0.81890  Biso   1.000  O 
