data_image0
_cell_length_a       10.485
_cell_length_b       19.1299
_cell_length_c       6.72134
_cell_angle_alpha    89.9997
_cell_angle_beta     50.6338
_cell_angle_gamma    89.9998

_symmetry_space_group_name_H-M    "P 1"
_symmetry_int_tables_number       1

loop_
  _symmetry_equiv_pos_as_xyz
  'x, y, z'

loop_
  _atom_site_label
  _atom_site_occupancy
  _atom_site_fract_x
  _atom_site_fract_y
  _atom_site_fract_z
  _atom_site_thermal_displace_type
  _atom_site_B_iso_or_equiv
  _atom_site_type_symbol
  Al1      1.0000 0.99283  1.00000  0.00349  Biso   1.000  Al
  Al2      1.0000 0.49283  0.50000  0.00349  Biso   1.000  Al
  Al3      1.0000 0.99352  1.00000  0.50479  Biso   1.000  Al
  Al4      1.0000 0.49353  0.50001  0.50478  Biso   1.000  Al
  C1       1.0000 0.16173  0.89635  0.58772  Biso   1.000  C 
  C2       1.0000 0.26132  0.78733  0.67101  Biso   1.000  C 
  C3       1.0000 0.18900  0.21764  0.38955  Biso   1.000  C 
  C4       1.0000 0.66173  0.60365  0.58773  Biso   1.000  C 
  C5       1.0000 0.70737  0.67831  0.54705  Biso   1.000  C 
  C6       1.0000 0.20738  0.82169  0.54704  Biso   1.000  C 
  C7       1.0000 0.79219  0.21473  0.63058  Biso   1.000  C 
  C8       1.0000 0.72261  0.21149  0.34807  Biso   1.000  C 
  C9       1.0000 0.72200  0.78865  0.34868  Biso   1.000  C 
  C10      1.0000 0.68899  0.28237  0.38955  Biso   1.000  C 
  C11      1.0000 0.32342  0.60214  0.42160  Biso   1.000  C 
  C12      1.0000 0.27433  0.67740  0.47208  Biso   1.000  C 
  C13      1.0000 0.68838  0.71777  0.39018  Biso   1.000  C 
  C14      1.0000 0.16213  0.10353  0.58736  Biso   1.000  C 
  C15      1.0000 0.22261  0.28851  0.34807  Biso   1.000  C 
  C16      1.0000 0.29158  0.71459  0.63120  Biso   1.000  C 
  C17      1.0000 0.82378  0.10224  0.42129  Biso   1.000  C 
  C18      1.0000 0.20795  0.17817  0.54644  Biso   1.000  C 
  C19      1.0000 0.76197  0.28748  0.67032  Biso   1.000  C 
  C20      1.0000 0.76132  0.71267  0.67101  Biso   1.000  C 
  C21      1.0000 0.29219  0.28528  0.63058  Biso   1.000  C 
  C22      1.0000 0.70795  0.32183  0.54645  Biso   1.000  C 
  C23      1.0000 0.66213  0.39647  0.58737  Biso   1.000  C 
  C24      1.0000 0.26197  0.21253  0.67032  Biso   1.000  C 
  C25      1.0000 0.27489  0.32247  0.47153  Biso   1.000  C 
  C26      1.0000 0.82343  0.89786  0.42161  Biso   1.000  C 
  C27      1.0000 0.77433  0.82260  0.47208  Biso   1.000  C 
  C28      1.0000 0.79158  0.78541  0.63120  Biso   1.000  C 
  C29      1.0000 0.32378  0.39776  0.42130  Biso   1.000  C 
  C30      1.0000 0.22200  0.71136  0.34869  Biso   1.000  C 
  C31      1.0000 0.18838  0.78223  0.39018  Biso   1.000  C 
  C32      1.0000 0.77489  0.17753  0.47152  Biso   1.000  C 
  H1       1.0000 0.77352  0.00008  0.97134  Biso   1.000  H 
  H2       1.0000 0.27352  0.49989  0.97134  Biso   1.000  H 
  H3       1.0000 0.74948  0.37180  0.86967  Biso   1.000  H 
  H4       1.0000 0.33215  0.31289  0.72442  Biso   1.000  H 
  H5       1.0000 0.21448  0.99997  0.03729  Biso   1.000  H 
  H6       1.0000 0.83215  0.18711  0.72441  Biso   1.000  H 
  H7       1.0000 0.33347  0.79545  0.89228  Biso   1.000  H 
  H8       1.0000 0.14276  0.19026  0.30484  Biso   1.000  H 
  H9       1.0000 0.33395  0.20444  0.89183  Biso   1.000  H 
  H10      1.0000 0.71447  0.50002  0.03729  Biso   1.000  H 
  H11      1.0000 0.24949  0.12820  0.86966  Biso   1.000  H 
  H12      1.0000 0.83157  0.81303  0.72500  Biso   1.000  H 
  H13      1.0000 0.64276  0.30975  0.30485  Biso   1.000  H 
  H14      1.0000 0.64217  0.69039  0.30543  Biso   1.000  H 
  H15      1.0000 0.20627  0.68143  0.22781  Biso   1.000  H 
  H16      1.0000 0.20685  0.31844  0.22723  Biso   1.000  H 
  H17      1.0000 0.24900  0.87169  0.87010  Biso   1.000  H 
  H18      1.0000 0.14217  0.80962  0.30543  Biso   1.000  H 
  H19      1.0000 0.70685  0.18156  0.22723  Biso   1.000  H 
  H20      1.0000 0.33157  0.68697  0.72500  Biso   1.000  H 
  H21      1.0000 0.83394  0.29556  0.89184  Biso   1.000  H 
  H22      1.0000 0.70627  0.81857  0.22780  Biso   1.000  H 
  H23      1.0000 0.74900  0.62831  0.87010  Biso   1.000  H 
  H24      1.0000 0.83348  0.70455  0.89228  Biso   1.000  H 
  N1       1.0000 0.78801  0.32155  0.81867  Biso   1.000  N 
  N2       1.0000 0.78726  0.67860  0.81949  Biso   1.000  N 
  N3       1.0000 0.28801  0.17844  0.81866  Biso   1.000  N 
  N4       1.0000 0.28726  0.82140  0.81948  Biso   1.000  N 
  O1       1.0000 0.13902  0.07422  0.44156  Biso   1.000  O 
  O2       1.0000 0.84558  0.07248  0.56718  Biso   1.000  O 
  O3       1.0000 0.89291  0.00003  0.85344  Biso   1.000  O 
  O4       1.0000 0.84603  0.92657  0.23007  Biso   1.000  O 
  O5       1.0000 0.59509  0.50004  0.15342  Biso   1.000  O 
  O6       1.0000 0.14416  0.92818  0.77249  Biso   1.000  O 
  O7       1.0000 0.09510  0.99996  0.15341  Biso   1.000  O 
  O8       1.0000 0.63862  0.57436  0.44192  Biso   1.000  O 
  O9       1.0000 0.13863  0.92564  0.44191  Biso   1.000  O 
  O10      1.0000 0.34559  0.42752  0.56719  Biso   1.000  O 
  O11      1.0000 0.84527  0.92764  0.56743  Biso   1.000  O 
  O12      1.0000 0.84626  0.07351  0.22990  Biso   1.000  O 
  O13      1.0000 0.63903  0.42579  0.44157  Biso   1.000  O 
  O14      1.0000 0.34625  0.42650  0.22993  Biso   1.000  O 
  O15      1.0000 0.14439  0.07175  0.77231  Biso   1.000  O 
  O16      1.0000 0.34602  0.57343  0.23008  Biso   1.000  O 
  O17      1.0000 0.34526  0.57236  0.56744  Biso   1.000  O 
  O18      1.0000 0.39291  0.49997  0.85344  Biso   1.000  O 
  O19      1.0000 0.64415  0.57183  0.77250  Biso   1.000  O 
  O20      1.0000 0.64439  0.42825  0.77232  Biso   1.000  O 
