data_image0
_cell_length_a       12.9249
_cell_length_b       17.9257
_cell_length_c       6.70643
_cell_angle_alpha    90.0015
_cell_angle_beta     60.3141
_cell_angle_gamma    90.001

_symmetry_space_group_name_H-M    "P 1"
_symmetry_int_tables_number       1

loop_
  _symmetry_equiv_pos_as_xyz
  'x, y, z'

loop_
  _atom_site_label
  _atom_site_occupancy
  _atom_site_fract_x
  _atom_site_fract_y
  _atom_site_fract_z
  _atom_site_thermal_displace_type
  _atom_site_B_iso_or_equiv
  _atom_site_type_symbol
  Al1      1.0000 0.99649  1.00000  0.99858  Biso   1.000  Al
  Al2      1.0000 0.49647  0.49999  0.99858  Biso   1.000  Al
  Al3      1.0000 0.99939  1.00000  0.49776  Biso   1.000  Al
  Al4      1.0000 0.49937  0.50000  0.49777  Biso   1.000  Al
  C1       1.0000 0.13087  0.89282  0.62136  Biso   1.000  C 
  C2       1.0000 0.24902  0.79052  0.68352  Biso   1.000  C 
  C3       1.0000 0.18913  0.22357  0.39179  Biso   1.000  C 
  C4       1.0000 0.63087  0.60718  0.62135  Biso   1.000  C 
  C5       1.0000 0.69115  0.68049  0.56559  Biso   1.000  C 
  C6       1.0000 0.19116  0.81951  0.56558  Biso   1.000  C 
  C7       1.0000 0.80422  0.21987  0.61562  Biso   1.000  C 
  C8       1.0000 0.74430  0.20745  0.32632  Biso   1.000  C 
  C9       1.0000 0.74428  0.79254  0.32635  Biso   1.000  C 
  C10      1.0000 0.68916  0.27642  0.39175  Biso   1.000  C 
  C11      1.0000 0.36508  0.60566  0.37597  Biso   1.000  C 
  C12      1.0000 0.30261  0.67923  0.44076  Biso   1.000  C 
  C13      1.0000 0.68914  0.72358  0.39179  Biso   1.000  C 
  C14      1.0000 0.13088  0.10717  0.62137  Biso   1.000  C 
  C15      1.0000 0.24427  0.29253  0.32634  Biso   1.000  C 
  C16      1.0000 0.30421  0.71986  0.61561  Biso   1.000  C 
  C17      1.0000 0.86509  0.10566  0.37599  Biso   1.000  C 
  C18      1.0000 0.19115  0.18048  0.56560  Biso   1.000  C 
  C19      1.0000 0.74901  0.29052  0.68350  Biso   1.000  C 
  C20      1.0000 0.74900  0.70948  0.68353  Biso   1.000  C 
  C21      1.0000 0.30420  0.28014  0.61563  Biso   1.000  C 
  C22      1.0000 0.69116  0.31951  0.56556  Biso   1.000  C 
  C23      1.0000 0.63087  0.39282  0.62134  Biso   1.000  C 
  C24      1.0000 0.24901  0.20948  0.68354  Biso   1.000  C 
  C25      1.0000 0.30260  0.32077  0.44078  Biso   1.000  C 
  C26      1.0000 0.86508  0.89433  0.37598  Biso   1.000  C 
  C27      1.0000 0.80261  0.82077  0.44079  Biso   1.000  C 
  C28      1.0000 0.80420  0.78014  0.61564  Biso   1.000  C 
  C29      1.0000 0.36508  0.39434  0.37596  Biso   1.000  C 
  C30      1.0000 0.24428  0.70746  0.32632  Biso   1.000  C 
  C31      1.0000 0.18915  0.77642  0.39176  Biso   1.000  C 
  C32      1.0000 0.80263  0.17923  0.44077  Biso   1.000  C 
  H1       1.0000 0.83952  0.00007  0.89709  Biso   1.000  H 
  H2       1.0000 0.33950  0.50003  0.89704  Biso   1.000  H 
  H3       1.0000 0.69887  0.37227  0.92558  Biso   1.000  H 
  H4       1.0000 0.34933  0.30362  0.70223  Biso   1.000  H 
  H5       1.0000 0.15783  0.00002  0.09507  Biso   1.000  H 
  H6       1.0000 0.84934  0.19640  0.70223  Biso   1.000  H 
  H7       1.0000 0.28940  0.80283  0.94183  Biso   1.000  H 
  H8       1.0000 0.14018  0.20095  0.31192  Biso   1.000  H 
  H9       1.0000 0.28939  0.19719  0.94186  Biso   1.000  H 
  H10      1.0000 0.65782  0.50001  0.09503  Biso   1.000  H 
  H11      1.0000 0.19886  0.12775  0.92561  Biso   1.000  H 
  H12      1.0000 0.84933  0.80361  0.70225  Biso   1.000  H 
  H13      1.0000 0.64021  0.29903  0.31187  Biso   1.000  H 
  H14      1.0000 0.64019  0.70096  0.31192  Biso   1.000  H 
  H15      1.0000 0.24169  0.67440  0.19260  Biso   1.000  H 
  H16      1.0000 0.24168  0.32559  0.19263  Biso   1.000  H 
  H17      1.0000 0.19887  0.87227  0.92558  Biso   1.000  H 
  H18      1.0000 0.14019  0.79904  0.31189  Biso   1.000  H 
  H19      1.0000 0.74172  0.17440  0.19260  Biso   1.000  H 
  H20      1.0000 0.34934  0.69639  0.70221  Biso   1.000  H 
  H21      1.0000 0.78939  0.30285  0.94182  Biso   1.000  H 
  H22      1.0000 0.74169  0.82559  0.19264  Biso   1.000  H 
  H23      1.0000 0.69885  0.62774  0.92561  Biso   1.000  H 
  H24      1.0000 0.78938  0.69717  0.94186  Biso   1.000  H 
  N1       1.0000 0.75572  0.32878  0.85233  Biso   1.000  N 
  N2       1.0000 0.75570  0.67123  0.85237  Biso   1.000  N 
  N3       1.0000 0.25571  0.17124  0.85238  Biso   1.000  N 
  N4       1.0000 0.25572  0.82877  0.85236  Biso   1.000  N 
  O1       1.0000 0.10613  0.07804  0.47615  Biso   1.000  O 
  O2       1.0000 0.89171  0.07662  0.51798  Biso   1.000  O 
  O3       1.0000 0.92568  1.00000  0.81680  Biso   1.000  O 
  O4       1.0000 0.88852  0.92244  0.18330  Biso   1.000  O 
  O5       1.0000 0.57163  0.49999  0.17677  Biso   1.000  O 
  O6       1.0000 0.10653  0.92337  0.81313  Biso   1.000  O 
  O7       1.0000 0.07165  0.99999  0.17677  Biso   1.000  O 
  O8       1.0000 0.60611  0.57804  0.47616  Biso   1.000  O 
  O9       1.0000 0.10611  0.92195  0.47616  Biso   1.000  O 
  O10      1.0000 0.39170  0.42339  0.51794  Biso   1.000  O 
  O11      1.0000 0.89169  0.92339  0.51797  Biso   1.000  O 
  O12      1.0000 0.88852  0.07754  0.18333  Biso   1.000  O 
  O13      1.0000 0.60611  0.42195  0.47615  Biso   1.000  O 
  O14      1.0000 0.38849  0.42245  0.18329  Biso   1.000  O 
  O15      1.0000 0.10654  0.07662  0.81314  Biso   1.000  O 
  O16      1.0000 0.38849  0.57754  0.18331  Biso   1.000  O 
  O17      1.0000 0.39170  0.57661  0.51794  Biso   1.000  O 
  O18      1.0000 0.42567  0.50000  0.81679  Biso   1.000  O 
  O19      1.0000 0.60651  0.57663  0.81312  Biso   1.000  O 
  O20      1.0000 0.60650  0.42337  0.81313  Biso   1.000  O 
