data_image0
_cell_length_a       10.2493
_cell_length_b       19.2096
_cell_length_c       6.73747
_cell_angle_alpha    90.0085
_cell_angle_beta     49.325
_cell_angle_gamma    90.0046

_symmetry_space_group_name_H-M    "P 1"
_symmetry_int_tables_number       1

loop_
  _symmetry_equiv_pos_as_xyz
  'x, y, z'

loop_
  _atom_site_label
  _atom_site_occupancy
  _atom_site_fract_x
  _atom_site_fract_y
  _atom_site_fract_z
  _atom_site_thermal_displace_type
  _atom_site_B_iso_or_equiv
  _atom_site_type_symbol
  Al1      1.0000 0.99353  0.99998  0.00293  Biso   1.000  Al
  Al2      1.0000 0.49381  0.49999  0.00242  Biso   1.000  Al
  Al3      1.0000 0.99425  0.99999  0.50401  Biso   1.000  Al
  Al4      1.0000 0.49445  0.49998  0.50362  Biso   1.000  Al
  C1       1.0000 0.16710  0.89649  0.58238  Biso   1.000  C 
  C2       1.0000 0.25802  0.78639  0.67550  Biso   1.000  C 
  C3       1.0000 0.19146  0.21714  0.38689  Biso   1.000  C 
  C4       1.0000 0.66741  0.60347  0.58193  Biso   1.000  C 
  C5       1.0000 0.70913  0.67839  0.54576  Biso   1.000  C 
  C6       1.0000 0.20894  0.82156  0.54607  Biso   1.000  C 
  C7       1.0000 0.78560  0.21372  0.63815  Biso   1.000  C 
  C8       1.0000 0.72233  0.21192  0.34807  Biso   1.000  C 
  C9       1.0000 0.72233  0.78803  0.34806  Biso   1.000  C 
  C10      1.0000 0.69154  0.28280  0.38672  Biso   1.000  C 
  C11      1.0000 0.31861  0.60191  0.42643  Biso   1.000  C 
  C12      1.0000 0.27053  0.67720  0.47603  Biso   1.000  C 
  C13      1.0000 0.69153  0.71715  0.38676  Biso   1.000  C 
  C14      1.0000 0.16713  0.10350  0.58242  Biso   1.000  C 
  C15      1.0000 0.22245  0.28800  0.34786  Biso   1.000  C 
  C16      1.0000 0.28573  0.71369  0.63795  Biso   1.000  C 
  C17      1.0000 0.81834  0.10191  0.42696  Biso   1.000  C 
  C18      1.0000 0.20894  0.17841  0.54608  Biso   1.000  C 
  C19      1.0000 0.75813  0.28644  0.67530  Biso   1.000  C 
  C20      1.0000 0.75814  0.71357  0.67532  Biso   1.000  C 
  C21      1.0000 0.28573  0.28632  0.63792  Biso   1.000  C 
  C22      1.0000 0.70914  0.32159  0.54570  Biso   1.000  C 
  C23      1.0000 0.66740  0.39651  0.58185  Biso   1.000  C 
  C24      1.0000 0.25802  0.21362  0.67552  Biso   1.000  C 
  C25      1.0000 0.27053  0.32278  0.47598  Biso   1.000  C 
  C26      1.0000 0.81838  0.89807  0.42682  Biso   1.000  C 
  C27      1.0000 0.77032  0.82278  0.47634  Biso   1.000  C 
  C28      1.0000 0.78562  0.78629  0.63811  Biso   1.000  C 
  C29      1.0000 0.31865  0.39806  0.42630  Biso   1.000  C 
  C30      1.0000 0.22248  0.71194  0.34785  Biso   1.000  C 
  C31      1.0000 0.19148  0.78281  0.38687  Biso   1.000  C 
  C32      1.0000 0.77030  0.17719  0.47640  Biso   1.000  C 
  H1       1.0000 0.76487  0.00030  0.98045  Biso   1.000  H 
  H2       1.0000 0.26516  0.50019  0.97998  Biso   1.000  H 
  H3       1.0000 0.75577  0.37114  0.86188  Biso   1.000  H 
  H4       1.0000 0.32258  0.31445  0.73523  Biso   1.000  H 
  H5       1.0000 0.22459  0.00009  0.02647  Biso   1.000  H 
  H6       1.0000 0.82235  0.18562  0.73565  Biso   1.000  H 
  H7       1.0000 0.34036  0.79443  0.88264  Biso   1.000  H 
  H8       1.0000 0.14884  0.18915  0.29775  Biso   1.000  H 
  H9       1.0000 0.34030  0.20563  0.88273  Biso   1.000  H 
  H10      1.0000 0.72488  0.50006  0.02597  Biso   1.000  H 
  H11      1.0000 0.25546  0.12899  0.86252  Biso   1.000  H 
  H12      1.0000 0.82237  0.81441  0.73559  Biso   1.000  H 
  H13      1.0000 0.64899  0.31076  0.29745  Biso   1.000  H 
  H14      1.0000 0.64896  0.68917  0.29753  Biso   1.000  H 
  H15      1.0000 0.20824  0.68267  0.22458  Biso   1.000  H 
  H16      1.0000 0.20820  0.31727  0.22459  Biso   1.000  H 
  H17      1.0000 0.25550  0.87105  0.86244  Biso   1.000  H 
  H18      1.0000 0.14885  0.81079  0.29771  Biso   1.000  H 
  H19      1.0000 0.70798  0.18260  0.22498  Biso   1.000  H 
  H20      1.0000 0.32257  0.68558  0.73530  Biso   1.000  H 
  H21      1.0000 0.84039  0.29451  0.88258  Biso   1.000  H 
  H22      1.0000 0.70796  0.81732  0.22498  Biso   1.000  H 
  H23      1.0000 0.75577  0.62890  0.86197  Biso   1.000  H 
  H24      1.0000 0.84038  0.70555  0.88264  Biso   1.000  H 
  N1       1.0000 0.77995  0.31933  0.83006  Biso   1.000  N 
  N2       1.0000 0.77996  0.68071  0.83010  Biso   1.000  N 
  N3       1.0000 0.27967  0.18080  0.83055  Biso   1.000  N 
  N4       1.0000 0.27969  0.81924  0.83049  Biso   1.000  N 
  O1       1.0000 0.14541  0.07406  0.43559  Biso   1.000  O 
  O2       1.0000 0.83997  0.07212  0.57261  Biso   1.000  O 
  O3       1.0000 0.88939  1.00000  0.85714  Biso   1.000  O 
  O4       1.0000 0.84073  0.92680  0.23587  Biso   1.000  O 
  O5       1.0000 0.60037  0.49999  0.14783  Biso   1.000  O 
  O6       1.0000 0.15117  0.92855  0.76495  Biso   1.000  O 
  O7       1.0000 0.10008  0.99999  0.14837  Biso   1.000  O 
  O8       1.0000 0.64568  0.57407  0.43507  Biso   1.000  O 
  O9       1.0000 0.14528  0.92588  0.43563  Biso   1.000  O 
  O10      1.0000 0.34022  0.42790  0.57196  Biso   1.000  O 
  O11      1.0000 0.83994  0.92789  0.57251  Biso   1.000  O 
  O12      1.0000 0.84061  0.07313  0.23609  Biso   1.000  O 
  O13      1.0000 0.64562  0.42589  0.43505  Biso   1.000  O 
  O14      1.0000 0.34107  0.42678  0.23527  Biso   1.000  O 
  O15      1.0000 0.15114  0.07146  0.76509  Biso   1.000  O 
  O16      1.0000 0.34096  0.57315  0.23547  Biso   1.000  O 
  O17      1.0000 0.34023  0.57210  0.57204  Biso   1.000  O 
  O18      1.0000 0.38968  0.49999  0.85663  Biso   1.000  O 
  O19      1.0000 0.65147  0.57143  0.76452  Biso   1.000  O 
  O20      1.0000 0.65151  0.42858  0.76438  Biso   1.000  O 
