data_image0
_cell_length_a       11.5996
_cell_length_b       18.65
_cell_length_c       6.70662
_cell_angle_alpha    90.0046
_cell_angle_beta     56.0666
_cell_angle_gamma    90.005

_symmetry_space_group_name_H-M    "P 1"
_symmetry_int_tables_number       1

loop_
  _symmetry_equiv_pos_as_xyz
  'x, y, z'

loop_
  _atom_site_label
  _atom_site_occupancy
  _atom_site_fract_x
  _atom_site_fract_y
  _atom_site_fract_z
  _atom_site_thermal_displace_type
  _atom_site_B_iso_or_equiv
  _atom_site_type_symbol
  Al1      1.0000 0.99495  0.99999  0.00093  Biso   1.000  Al
  Al2      1.0000 0.49492  0.49999  0.00087  Biso   1.000  Al
  Al3      1.0000 0.99662  0.99999  0.50112  Biso   1.000  Al
  Al4      1.0000 0.49661  0.49999  0.50102  Biso   1.000  Al
  C1       1.0000 0.14399  0.89502  0.60783  Biso   1.000  C 
  C2       1.0000 0.25714  0.78893  0.67491  Biso   1.000  C 
  C3       1.0000 0.18521  0.22042  0.39514  Biso   1.000  C 
  C4       1.0000 0.64405  0.60495  0.60775  Biso   1.000  C 
  C5       1.0000 0.69787  0.67914  0.55805  Biso   1.000  C 
  C6       1.0000 0.19785  0.82085  0.55811  Biso   1.000  C 
  C7       1.0000 0.80184  0.21690  0.61852  Biso   1.000  C 
  C8       1.0000 0.73103  0.20924  0.33979  Biso   1.000  C 
  C9       1.0000 0.73100  0.79073  0.33976  Biso   1.000  C 
  C10      1.0000 0.68521  0.27953  0.39514  Biso   1.000  C 
  C11      1.0000 0.34708  0.60340  0.39494  Biso   1.000  C 
  C12      1.0000 0.29027  0.67794  0.45392  Biso   1.000  C 
  C13      1.0000 0.68521  0.72043  0.39512  Biso   1.000  C 
  C14      1.0000 0.14405  0.10494  0.60780  Biso   1.000  C 
  C15      1.0000 0.23100  0.29072  0.33977  Biso   1.000  C 
  C16      1.0000 0.30187  0.71690  0.61848  Biso   1.000  C 
  C17      1.0000 0.84707  0.10340  0.39502  Biso   1.000  C 
  C18      1.0000 0.19788  0.17914  0.55807  Biso   1.000  C 
  C19      1.0000 0.75713  0.28895  0.67490  Biso   1.000  C 
  C20      1.0000 0.75714  0.71106  0.67486  Biso   1.000  C 
  C21      1.0000 0.30186  0.28311  0.61846  Biso   1.000  C 
  C22      1.0000 0.69784  0.32084  0.55809  Biso   1.000  C 
  C23      1.0000 0.64399  0.39502  0.60777  Biso   1.000  C 
  C24      1.0000 0.25715  0.21108  0.67487  Biso   1.000  C 
  C25      1.0000 0.29024  0.32206  0.45391  Biso   1.000  C 
  C26      1.0000 0.84704  0.89659  0.39498  Biso   1.000  C 
  C27      1.0000 0.79022  0.82206  0.45393  Biso   1.000  C 
  C28      1.0000 0.80183  0.78310  0.61847  Biso   1.000  C 
  C29      1.0000 0.34704  0.39660  0.39492  Biso   1.000  C 
  C30      1.0000 0.23104  0.70925  0.33978  Biso   1.000  C 
  C31      1.0000 0.18521  0.77954  0.39517  Biso   1.000  C 
  C32      1.0000 0.79025  0.17793  0.45396  Biso   1.000  C 
  H1       1.0000 0.81091  0.00018  0.92872  Biso   1.000  H 
  H2       1.0000 0.31091  0.50009  0.92862  Biso   1.000  H 
  H3       1.0000 0.72272  0.37208  0.89982  Biso   1.000  H 
  H4       1.0000 0.34737  0.30891  0.70499  Biso   1.000  H 
  H5       1.0000 0.18231  0.00007  0.07144  Biso   1.000  H 
  H6       1.0000 0.84736  0.19114  0.70508  Biso   1.000  H 
  H7       1.0000 0.31052  0.79880  0.91882  Biso   1.000  H 
  H8       1.0000 0.13525  0.19512  0.31576  Biso   1.000  H 
  H9       1.0000 0.31051  0.20126  0.91883  Biso   1.000  H 
  H10      1.0000 0.68231  0.50006  0.07133  Biso   1.000  H 
  H11      1.0000 0.22270  0.12798  0.89994  Biso   1.000  H 
  H12      1.0000 0.84735  0.80889  0.70502  Biso   1.000  H 
  H13      1.0000 0.63525  0.30480  0.31572  Biso   1.000  H 
  H14      1.0000 0.63524  0.69514  0.31571  Biso   1.000  H 
  H15      1.0000 0.22034  0.67774  0.21425  Biso   1.000  H 
  H16      1.0000 0.22028  0.32222  0.21426  Biso   1.000  H 
  H17      1.0000 0.22269  0.87206  0.89993  Biso   1.000  H 
  H18      1.0000 0.13524  0.80482  0.31577  Biso   1.000  H 
  H19      1.0000 0.72037  0.17772  0.21424  Biso   1.000  H 
  H20      1.0000 0.34739  0.69112  0.70502  Biso   1.000  H 
  H21      1.0000 0.81055  0.29883  0.91873  Biso   1.000  H 
  H22      1.0000 0.72031  0.82224  0.21424  Biso   1.000  H 
  H23      1.0000 0.72273  0.62795  0.89981  Biso   1.000  H 
  H24      1.0000 0.81055  0.70122  0.91872  Biso   1.000  H 
  N1       1.0000 0.77551  0.32538  0.83099  Biso   1.000  N 
  N2       1.0000 0.77554  0.67464  0.83095  Biso   1.000  N 
  N3       1.0000 0.27553  0.17467  0.83101  Biso   1.000  N 
  N4       1.0000 0.27549  0.82536  0.83107  Biso   1.000  N 
  O1       1.0000 0.11995  0.07563  0.46239  Biso   1.000  O 
  O2       1.0000 0.87166  0.07391  0.53883  Biso   1.000  O 
  O3       1.0000 0.91145  1.00000  0.83258  Biso   1.000  O 
  O4       1.0000 0.87029  0.92482  0.20253  Biso   1.000  O 
  O5       1.0000 0.58175  0.49999  0.16734  Biso   1.000  O 
  O6       1.0000 0.12280  0.92618  0.79663  Biso   1.000  O 
  O7       1.0000 0.08177  0.99998  0.16742  Biso   1.000  O 
  O8       1.0000 0.61994  0.57564  0.46234  Biso   1.000  O 
  O9       1.0000 0.11983  0.92431  0.46248  Biso   1.000  O 
  O10      1.0000 0.37159  0.42612  0.53875  Biso   1.000  O 
  O11      1.0000 0.87158  0.92611  0.53883  Biso   1.000  O 
  O12      1.0000 0.87027  0.07514  0.20263  Biso   1.000  O 
  O13      1.0000 0.61984  0.42430  0.46239  Biso   1.000  O 
  O14      1.0000 0.37024  0.42483  0.20250  Biso   1.000  O 
  O15      1.0000 0.12281  0.07382  0.79668  Biso   1.000  O 
  O16      1.0000 0.37027  0.57515  0.20254  Biso   1.000  O 
  O17      1.0000 0.37165  0.57390  0.53876  Biso   1.000  O 
  O18      1.0000 0.41145  0.50000  0.83251  Biso   1.000  O 
  O19      1.0000 0.62280  0.57382  0.79661  Biso   1.000  O 
  O20      1.0000 0.62277  0.42618  0.79659  Biso   1.000  O 
