data_image0
_cell_length_a       13.0272
_cell_length_b       17.8628
_cell_length_c       6.70642
_cell_angle_alpha    90.0011
_cell_angle_beta     60.601
_cell_angle_gamma    90.0012

_symmetry_space_group_name_H-M    "P 1"
_symmetry_int_tables_number       1

loop_
  _symmetry_equiv_pos_as_xyz
  'x, y, z'

loop_
  _atom_site_label
  _atom_site_occupancy
  _atom_site_fract_x
  _atom_site_fract_y
  _atom_site_fract_z
  _atom_site_thermal_displace_type
  _atom_site_B_iso_or_equiv
  _atom_site_type_symbol
  Al1      1.0000 0.99640  0.99999  0.99874  Biso   1.000  Al
  Al2      1.0000 0.49638  0.50000  0.99873  Biso   1.000  Al
  Al3      1.0000 0.99927  0.99999  0.49801  Biso   1.000  Al
  Al4      1.0000 0.49925  0.49999  0.49795  Biso   1.000  Al
  C1       1.0000 0.13011  0.89270  0.62227  Biso   1.000  C 
  C2       1.0000 0.24869  0.79069  0.68377  Biso   1.000  C 
  C3       1.0000 0.18966  0.22362  0.39121  Biso   1.000  C 
  C4       1.0000 0.63011  0.60729  0.62225  Biso   1.000  C 
  C5       1.0000 0.69099  0.68046  0.56577  Biso   1.000  C 
  C6       1.0000 0.19099  0.81954  0.56578  Biso   1.000  C 
  C7       1.0000 0.80416  0.22009  0.61554  Biso   1.000  C 
  C8       1.0000 0.74499  0.20740  0.32556  Biso   1.000  C 
  C9       1.0000 0.74497  0.79260  0.32557  Biso   1.000  C 
  C10      1.0000 0.68968  0.27636  0.39119  Biso   1.000  C 
  C11      1.0000 0.36584  0.60581  0.37512  Biso   1.000  C 
  C12      1.0000 0.30305  0.67931  0.44016  Biso   1.000  C 
  C13      1.0000 0.68967  0.72364  0.39121  Biso   1.000  C 
  C14      1.0000 0.13012  0.10729  0.62228  Biso   1.000  C 
  C15      1.0000 0.24497  0.29259  0.32552  Biso   1.000  C 
  C16      1.0000 0.30415  0.72008  0.61550  Biso   1.000  C 
  C17      1.0000 0.86586  0.10582  0.37517  Biso   1.000  C 
  C18      1.0000 0.19099  0.18046  0.56579  Biso   1.000  C 
  C19      1.0000 0.74869  0.29070  0.68379  Biso   1.000  C 
  C20      1.0000 0.74868  0.70931  0.68379  Biso   1.000  C 
  C21      1.0000 0.30416  0.27992  0.61550  Biso   1.000  C 
  C22      1.0000 0.69099  0.31954  0.56577  Biso   1.000  C 
  C23      1.0000 0.63011  0.39270  0.62225  Biso   1.000  C 
  C24      1.0000 0.24869  0.20931  0.68379  Biso   1.000  C 
  C25      1.0000 0.30305  0.32068  0.44014  Biso   1.000  C 
  C26      1.0000 0.86585  0.89419  0.37518  Biso   1.000  C 
  C27      1.0000 0.80305  0.82069  0.44021  Biso   1.000  C 
  C28      1.0000 0.80414  0.77992  0.61556  Biso   1.000  C 
  C29      1.0000 0.36585  0.39418  0.37510  Biso   1.000  C 
  C30      1.0000 0.24496  0.70740  0.32553  Biso   1.000  C 
  C31      1.0000 0.18966  0.77637  0.39121  Biso   1.000  C 
  C32      1.0000 0.80307  0.17932  0.44019  Biso   1.000  C 
  H1       1.0000 0.84114  0.00004  0.89561  Biso   1.000  H 
  H2       1.0000 0.34113  0.50002  0.89560  Biso   1.000  H 
  H3       1.0000 0.69812  0.37238  0.92649  Biso   1.000  H 
  H4       1.0000 0.34910  0.30328  0.70224  Biso   1.000  H 
  H5       1.0000 0.15595  0.00002  0.09719  Biso   1.000  H 
  H6       1.0000 0.84910  0.19675  0.70231  Biso   1.000  H 
  H7       1.0000 0.28859  0.80313  0.94253  Biso   1.000  H 
  H8       1.0000 0.14121  0.20098  0.31082  Biso   1.000  H 
  H9       1.0000 0.28857  0.19688  0.94255  Biso   1.000  H 
  H10      1.0000 0.65593  0.50002  0.09719  Biso   1.000  H 
  H11      1.0000 0.19813  0.12766  0.92654  Biso   1.000  H 
  H12      1.0000 0.84908  0.80327  0.70233  Biso   1.000  H 
  H13      1.0000 0.64123  0.29899  0.31078  Biso   1.000  H 
  H14      1.0000 0.64121  0.70101  0.31080  Biso   1.000  H 
  H15      1.0000 0.24264  0.67419  0.19160  Biso   1.000  H 
  H16      1.0000 0.24264  0.32580  0.19160  Biso   1.000  H 
  H17      1.0000 0.19813  0.87235  0.92651  Biso   1.000  H 
  H18      1.0000 0.14120  0.79900  0.31082  Biso   1.000  H 
  H19      1.0000 0.74268  0.17418  0.19164  Biso   1.000  H 
  H20      1.0000 0.34909  0.69672  0.70225  Biso   1.000  H 
  H21      1.0000 0.78856  0.30316  0.94257  Biso   1.000  H 
  H22      1.0000 0.74265  0.82582  0.19166  Biso   1.000  H 
  H23      1.0000 0.69811  0.62764  0.92650  Biso   1.000  H 
  H24      1.0000 0.78855  0.69685  0.94257  Biso   1.000  H 
  N1       1.0000 0.75505  0.32912  0.85293  Biso   1.000  N 
  N2       1.0000 0.75505  0.67089  0.85294  Biso   1.000  N 
  N3       1.0000 0.25506  0.17091  0.85295  Biso   1.000  N 
  N4       1.0000 0.25506  0.82909  0.85294  Biso   1.000  N 
  O1       1.0000 0.10525  0.07814  0.47721  Biso   1.000  O 
  O2       1.0000 0.89269  0.07689  0.51706  Biso   1.000  O 
  O3       1.0000 0.92639  0.00000  0.81617  Biso   1.000  O 
  O4       1.0000 0.88930  0.92230  0.18250  Biso   1.000  O 
  O5       1.0000 0.57065  0.50000  0.17786  Biso   1.000  O 
  O6       1.0000 0.10537  0.92309  0.81448  Biso   1.000  O 
  O7       1.0000 0.07067  0.99999  0.17788  Biso   1.000  O 
  O8       1.0000 0.60524  0.57816  0.47717  Biso   1.000  O 
  O9       1.0000 0.10523  0.92184  0.47722  Biso   1.000  O 
  O10      1.0000 0.39268  0.42312  0.51697  Biso   1.000  O 
  O11      1.0000 0.89267  0.92312  0.51706  Biso   1.000  O 
  O12      1.0000 0.88930  0.07770  0.18250  Biso   1.000  O 
  O13      1.0000 0.60524  0.42184  0.47717  Biso   1.000  O 
  O14      1.0000 0.38929  0.42229  0.18243  Biso   1.000  O 
  O15      1.0000 0.10538  0.07691  0.81450  Biso   1.000  O 
  O16      1.0000 0.38928  0.57770  0.18245  Biso   1.000  O 
  O17      1.0000 0.39268  0.57687  0.51698  Biso   1.000  O 
  O18      1.0000 0.42638  0.50000  0.81610  Biso   1.000  O 
  O19      1.0000 0.60537  0.57690  0.81446  Biso   1.000  O 
  O20      1.0000 0.60537  0.42310  0.81446  Biso   1.000  O 
