data_image0
_cell_length_a       14.356
_cell_length_b       16.9572
_cell_length_c       6.71477
_cell_angle_alpha    90.0004
_cell_angle_beta     63.4832
_cell_angle_gamma    90.0006

_symmetry_space_group_name_H-M    "P 1"
_symmetry_int_tables_number       1

loop_
  _symmetry_equiv_pos_as_xyz
  'x, y, z'

loop_
  _atom_site_label
  _atom_site_occupancy
  _atom_site_fract_x
  _atom_site_fract_y
  _atom_site_fract_z
  _atom_site_thermal_displace_type
  _atom_site_B_iso_or_equiv
  _atom_site_type_symbol
  Al1      1.0000 0.99777  1.00000  0.99706  Biso   1.000  Al
  Al2      1.0000 0.49778  0.50000  0.99707  Biso   1.000  Al
  Al3      1.0000 0.00113  1.00000  0.49581  Biso   1.000  Al
  Al4      1.0000 0.50113  0.50000  0.49581  Biso   1.000  Al
  C1       1.0000 0.12146  0.88948  0.63023  Biso   1.000  C 
  C2       1.0000 0.24224  0.79227  0.69005  Biso   1.000  C 
  C3       1.0000 0.19381  0.22748  0.38762  Biso   1.000  C 
  C4       1.0000 0.62147  0.61052  0.63024  Biso   1.000  C 
  C5       1.0000 0.68675  0.68241  0.57008  Biso   1.000  C 
  C6       1.0000 0.18676  0.81759  0.57008  Biso   1.000  C 
  C7       1.0000 0.80393  0.22349  0.61575  Biso   1.000  C 
  C8       1.0000 0.75492  0.20538  0.31634  Biso   1.000  C 
  C9       1.0000 0.75492  0.79462  0.31634  Biso   1.000  C 
  C10      1.0000 0.69381  0.27252  0.38762  Biso   1.000  C 
  C11      1.0000 0.37787  0.60894  0.36382  Biso   1.000  C 
  C12      1.0000 0.31084  0.68101  0.43279  Biso   1.000  C 
  C13      1.0000 0.69381  0.72748  0.38762  Biso   1.000  C 
  C14      1.0000 0.12147  0.11052  0.63024  Biso   1.000  C 
  C15      1.0000 0.25492  0.29462  0.31634  Biso   1.000  C 
  C16      1.0000 0.30394  0.72349  0.61574  Biso   1.000  C 
  C17      1.0000 0.87787  0.10894  0.36381  Biso   1.000  C 
  C18      1.0000 0.18675  0.18241  0.57008  Biso   1.000  C 
  C19      1.0000 0.74224  0.29226  0.69006  Biso   1.000  C 
  C20      1.0000 0.74224  0.70774  0.69006  Biso   1.000  C 
  C21      1.0000 0.30393  0.27651  0.61575  Biso   1.000  C 
  C22      1.0000 0.68675  0.31759  0.57009  Biso   1.000  C 
  C23      1.0000 0.62146  0.38947  0.63024  Biso   1.000  C 
  C24      1.0000 0.24224  0.20774  0.69006  Biso   1.000  C 
  C25      1.0000 0.31083  0.31900  0.43279  Biso   1.000  C 
  C26      1.0000 0.87787  0.89106  0.36382  Biso   1.000  C 
  C27      1.0000 0.81083  0.81900  0.43280  Biso   1.000  C 
  C28      1.0000 0.80393  0.77651  0.61575  Biso   1.000  C 
  C29      1.0000 0.37787  0.39106  0.36382  Biso   1.000  C 
  C30      1.0000 0.25492  0.70538  0.31634  Biso   1.000  C 
  C31      1.0000 0.19381  0.77252  0.38761  Biso   1.000  C 
  C32      1.0000 0.81084  0.18100  0.43279  Biso   1.000  C 
  H1       1.0000 0.86123  0.00003  0.87497  Biso   1.000  H 
  H2       1.0000 0.36123  0.50000  0.87499  Biso   1.000  H 
  H3       1.0000 0.68181  0.37228  0.94241  Biso   1.000  H 
  H4       1.0000 0.34721  0.29712  0.70420  Biso   1.000  H 
  H5       1.0000 0.13905  1.00000  0.11240  Biso   1.000  H 
  H6       1.0000 0.84721  0.20289  0.70421  Biso   1.000  H 
  H7       1.0000 0.27375  0.80810  0.95707  Biso   1.000  H 
  H8       1.0000 0.14738  0.20806  0.30530  Biso   1.000  H 
  H9       1.0000 0.27375  0.19190  0.95707  Biso   1.000  H 
  H10      1.0000 0.63905  0.50000  0.11241  Biso   1.000  H 
  H11      1.0000 0.18181  0.12772  0.94242  Biso   1.000  H 
  H12      1.0000 0.84721  0.79712  0.70420  Biso   1.000  H 
  H13      1.0000 0.64739  0.29193  0.30529  Biso   1.000  H 
  H14      1.0000 0.64738  0.70806  0.30529  Biso   1.000  H 
  H15      1.0000 0.25904  0.67054  0.17639  Biso   1.000  H 
  H16      1.0000 0.25904  0.32946  0.17640  Biso   1.000  H 
  H17      1.0000 0.18181  0.87228  0.94243  Biso   1.000  H 
  H18      1.0000 0.14739  0.79193  0.30529  Biso   1.000  H 
  H19      1.0000 0.75904  0.17054  0.17639  Biso   1.000  H 
  H20      1.0000 0.34722  0.70289  0.70419  Biso   1.000  H 
  H21      1.0000 0.77374  0.30810  0.95707  Biso   1.000  H 
  H22      1.0000 0.75904  0.82946  0.17640  Biso   1.000  H 
  H23      1.0000 0.68181  0.62773  0.94243  Biso   1.000  H 
  H24      1.0000 0.77374  0.69191  0.95707  Biso   1.000  H 
  N1       1.0000 0.74028  0.33267  0.86745  Biso   1.000  N 
  N2       1.0000 0.74028  0.66733  0.86745  Biso   1.000  N 
  N3       1.0000 0.24028  0.16734  0.86745  Biso   1.000  N 
  N4       1.0000 0.24028  0.83267  0.86745  Biso   1.000  N 
  O1       1.0000 0.09586  0.08176  0.48574  Biso   1.000  O 
  O2       1.0000 0.90609  0.08075  0.50419  Biso   1.000  O 
  O3       1.0000 0.93653  1.00000  0.80577  Biso   1.000  O 
  O4       1.0000 0.90202  0.91902  0.17050  Biso   1.000  O 
  O5       1.0000 0.56370  0.50000  0.18388  Biso   1.000  O 
  O6       1.0000 0.09467  0.91934  0.82412  Biso   1.000  O 
  O7       1.0000 0.06370  1.00000  0.18388  Biso   1.000  O 
  O8       1.0000 0.59587  0.58175  0.48575  Biso   1.000  O 
  O9       1.0000 0.09586  0.91824  0.48573  Biso   1.000  O 
  O10      1.0000 0.40607  0.41926  0.50421  Biso   1.000  O 
  O11      1.0000 0.90609  0.91925  0.50420  Biso   1.000  O 
  O12      1.0000 0.90203  0.08099  0.17050  Biso   1.000  O 
  O13      1.0000 0.59584  0.41823  0.48575  Biso   1.000  O 
  O14      1.0000 0.40204  0.41901  0.17049  Biso   1.000  O 
  O15      1.0000 0.09467  0.08066  0.82412  Biso   1.000  O 
  O16      1.0000 0.40203  0.58098  0.17051  Biso   1.000  O 
  O17      1.0000 0.40610  0.58076  0.50420  Biso   1.000  O 
  O18      1.0000 0.43653  0.50000  0.80578  Biso   1.000  O 
  O19      1.0000 0.59467  0.58066  0.82413  Biso   1.000  O 
  O20      1.0000 0.59468  0.41934  0.82410  Biso   1.000  O 
