data_image0
_cell_length_a       15.0561
_cell_length_b       16.393
_cell_length_c       6.72655
_cell_angle_alpha    90.0004
_cell_angle_beta     64.9243
_cell_angle_gamma    90.0001

_symmetry_space_group_name_H-M    "P 1"
_symmetry_int_tables_number       1

loop_
  _symmetry_equiv_pos_as_xyz
  'x, y, z'

loop_
  _atom_site_label
  _atom_site_occupancy
  _atom_site_fract_x
  _atom_site_fract_y
  _atom_site_fract_z
  _atom_site_thermal_displace_type
  _atom_site_B_iso_or_equiv
  _atom_site_type_symbol
  Al1      1.0000 0.99840  0.00000  0.99619  Biso   1.000  Al
  Al2      1.0000 0.49840  0.50000  0.99619  Biso   1.000  Al
  Al3      1.0000 0.00177  0.00000  0.49503  Biso   1.000  Al
  Al4      1.0000 0.50178  0.50000  0.49502  Biso   1.000  Al
  C1       1.0000 0.11774  0.88723  0.63431  Biso   1.000  C 
  C2       1.0000 0.23924  0.79274  0.69330  Biso   1.000  C 
  C3       1.0000 0.19595  0.22935  0.38586  Biso   1.000  C 
  C4       1.0000 0.61774  0.61277  0.63431  Biso   1.000  C 
  C5       1.0000 0.68494  0.68375  0.57240  Biso   1.000  C 
  C6       1.0000 0.18494  0.81625  0.57240  Biso   1.000  C 
  C7       1.0000 0.80345  0.22531  0.61615  Biso   1.000  C 
  C8       1.0000 0.75946  0.20490  0.31182  Biso   1.000  C 
  C9       1.0000 0.75946  0.79511  0.31183  Biso   1.000  C 
  C10      1.0000 0.69595  0.27065  0.38586  Biso   1.000  C 
  C11      1.0000 0.38292  0.61122  0.35833  Biso   1.000  C 
  C12      1.0000 0.31407  0.68234  0.42932  Biso   1.000  C 
  C13      1.0000 0.69594  0.72935  0.38587  Biso   1.000  C 
  C14      1.0000 0.11774  0.11277  0.63431  Biso   1.000  C 
  C15      1.0000 0.25946  0.29510  0.31181  Biso   1.000  C 
  C16      1.0000 0.30344  0.72531  0.61615  Biso   1.000  C 
  C17      1.0000 0.88292  0.11122  0.35834  Biso   1.000  C 
  C18      1.0000 0.18494  0.18375  0.57239  Biso   1.000  C 
  C19      1.0000 0.73924  0.29274  0.69329  Biso   1.000  C 
  C20      1.0000 0.73923  0.70726  0.69330  Biso   1.000  C 
  C21      1.0000 0.30345  0.27469  0.61614  Biso   1.000  C 
  C22      1.0000 0.68494  0.31625  0.57239  Biso   1.000  C 
  C23      1.0000 0.61774  0.38723  0.63430  Biso   1.000  C 
  C24      1.0000 0.23924  0.20726  0.69329  Biso   1.000  C 
  C25      1.0000 0.31408  0.31766  0.42930  Biso   1.000  C 
  C26      1.0000 0.88292  0.88878  0.35833  Biso   1.000  C 
  C27      1.0000 0.81407  0.81766  0.42932  Biso   1.000  C 
  C28      1.0000 0.80344  0.77469  0.61616  Biso   1.000  C 
  C29      1.0000 0.38293  0.38877  0.35832  Biso   1.000  C 
  C30      1.0000 0.25946  0.70489  0.31182  Biso   1.000  C 
  C31      1.0000 0.19594  0.77065  0.38587  Biso   1.000  C 
  C32      1.0000 0.81407  0.18234  0.42931  Biso   1.000  C 
  H1       1.0000 0.87005  0.99999  0.86496  Biso   1.000  H 
  H2       1.0000 0.37005  0.50000  0.86496  Biso   1.000  H 
  H3       1.0000 0.67516  0.37149  0.94923  Biso   1.000  H 
  H4       1.0000 0.34575  0.29388  0.70552  Biso   1.000  H 
  H5       1.0000 0.13139  1.00000  0.12055  Biso   1.000  H 
  H6       1.0000 0.84575  0.20612  0.70553  Biso   1.000  H 
  H7       1.0000 0.26751  0.81047  0.96340  Biso   1.000  H 
  H8       1.0000 0.15081  0.21157  0.30224  Biso   1.000  H 
  H9       1.0000 0.26752  0.18953  0.96339  Biso   1.000  H 
  H10      1.0000 0.63140  0.50000  0.12055  Biso   1.000  H 
  H11      1.0000 0.17516  0.12851  0.94922  Biso   1.000  H 
  H12      1.0000 0.84574  0.79388  0.70555  Biso   1.000  H 
  H13      1.0000 0.65082  0.28843  0.30224  Biso   1.000  H 
  H14      1.0000 0.65081  0.71157  0.30225  Biso   1.000  H 
  H15      1.0000 0.26652  0.66962  0.16865  Biso   1.000  H 
  H16      1.0000 0.26652  0.33037  0.16864  Biso   1.000  H 
  H17      1.0000 0.17515  0.87149  0.94924  Biso   1.000  H 
  H18      1.0000 0.15081  0.78843  0.30225  Biso   1.000  H 
  H19      1.0000 0.76652  0.16962  0.16864  Biso   1.000  H 
  H20      1.0000 0.34574  0.70612  0.70554  Biso   1.000  H 
  H21      1.0000 0.76752  0.31047  0.96340  Biso   1.000  H 
  H22      1.0000 0.76652  0.83038  0.16865  Biso   1.000  H 
  H23      1.0000 0.67515  0.62851  0.94924  Biso   1.000  H 
  H24      1.0000 0.76752  0.68953  0.96340  Biso   1.000  H 
  N1       1.0000 0.73353  0.33384  0.87457  Biso   1.000  N 
  N2       1.0000 0.73352  0.66617  0.87458  Biso   1.000  N 
  N3       1.0000 0.23354  0.16617  0.87456  Biso   1.000  N 
  N4       1.0000 0.23353  0.83383  0.87458  Biso   1.000  N 
  O1       1.0000 0.09174  0.08412  0.49029  Biso   1.000  O 
  O2       1.0000 0.91180  0.08340  0.49784  Biso   1.000  O 
  O3       1.0000 0.94098  1.00000  0.80082  Biso   1.000  O 
  O4       1.0000 0.90744  0.91657  0.16494  Biso   1.000  O 
  O5       1.0000 0.56041  0.50000  0.18698  Biso   1.000  O 
  O6       1.0000 0.09010  0.91663  0.82863  Biso   1.000  O 
  O7       1.0000 0.06041  0.00000  0.18698  Biso   1.000  O 
  O8       1.0000 0.59174  0.58413  0.49029  Biso   1.000  O 
  O9       1.0000 0.09175  0.91588  0.49029  Biso   1.000  O 
  O10      1.0000 0.41181  0.41660  0.49782  Biso   1.000  O 
  O11      1.0000 0.91180  0.91660  0.49783  Biso   1.000  O 
  O12      1.0000 0.90744  0.08343  0.16494  Biso   1.000  O 
  O13      1.0000 0.59175  0.41588  0.49028  Biso   1.000  O 
  O14      1.0000 0.40744  0.41657  0.16493  Biso   1.000  O 
  O15      1.0000 0.09010  0.08337  0.82863  Biso   1.000  O 
  O16      1.0000 0.40744  0.58343  0.16493  Biso   1.000  O 
  O17      1.0000 0.41180  0.58340  0.49784  Biso   1.000  O 
  O18      1.0000 0.44099  0.50000  0.80082  Biso   1.000  O 
  O19      1.0000 0.59010  0.58337  0.82863  Biso   1.000  O 
  O20      1.0000 0.59011  0.41664  0.82863  Biso   1.000  O 
