data_image0
_cell_length_a       12.7664
_cell_length_b       18.023
_cell_length_c       6.70333
_cell_angle_alpha    90.0018
_cell_angle_beta     59.8924
_cell_angle_gamma    90.0011

_symmetry_space_group_name_H-M    "P 1"
_symmetry_int_tables_number       1

loop_
  _symmetry_equiv_pos_as_xyz
  'x, y, z'

loop_
  _atom_site_label
  _atom_site_occupancy
  _atom_site_fract_x
  _atom_site_fract_y
  _atom_site_fract_z
  _atom_site_thermal_displace_type
  _atom_site_B_iso_or_equiv
  _atom_site_type_symbol
  Al1      1.0000 0.99608  1.00000  0.99916  Biso   1.000  Al
  Al2      1.0000 0.49608  0.50000  0.99930  Biso   1.000  Al
  Al3      1.0000 0.99873  0.99999  0.49861  Biso   1.000  Al
  Al4      1.0000 0.49866  0.49999  0.49888  Biso   1.000  Al
  C1       1.0000 0.13206  0.89318  0.62015  Biso   1.000  C 
  C2       1.0000 0.25022  0.79053  0.68209  Biso   1.000  C 
  C3       1.0000 0.18861  0.22308  0.39212  Biso   1.000  C 
  C4       1.0000 0.63205  0.60682  0.62030  Biso   1.000  C 
  C5       1.0000 0.69189  0.68018  0.56471  Biso   1.000  C 
  C6       1.0000 0.19190  0.81982  0.56464  Biso   1.000  C 
  C7       1.0000 0.80443  0.21970  0.61522  Biso   1.000  C 
  C8       1.0000 0.74279  0.20776  0.32770  Biso   1.000  C 
  C9       1.0000 0.74278  0.79223  0.32770  Biso   1.000  C 
  C10      1.0000 0.68860  0.27693  0.39215  Biso   1.000  C 
  C11      1.0000 0.36308  0.60540  0.37818  Biso   1.000  C 
  C12      1.0000 0.30145  0.67918  0.44191  Biso   1.000  C 
  C13      1.0000 0.68860  0.72306  0.39215  Biso   1.000  C 
  C14      1.0000 0.13206  0.10682  0.62016  Biso   1.000  C 
  C15      1.0000 0.24278  0.29225  0.32773  Biso   1.000  C 
  C16      1.0000 0.30441  0.71971  0.61529  Biso   1.000  C 
  C17      1.0000 0.86310  0.10540  0.37803  Biso   1.000  C 
  C18      1.0000 0.19189  0.18017  0.56464  Biso   1.000  C 
  C19      1.0000 0.75024  0.29052  0.68208  Biso   1.000  C 
  C20      1.0000 0.75023  0.70948  0.68209  Biso   1.000  C 
  C21      1.0000 0.30440  0.28029  0.61529  Biso   1.000  C 
  C22      1.0000 0.69189  0.31982  0.56470  Biso   1.000  C 
  C23      1.0000 0.63204  0.39317  0.62029  Biso   1.000  C 
  C24      1.0000 0.25022  0.20947  0.68209  Biso   1.000  C 
  C25      1.0000 0.30145  0.32082  0.44190  Biso   1.000  C 
  C26      1.0000 0.86311  0.89459  0.37801  Biso   1.000  C 
  C27      1.0000 0.80148  0.82081  0.44179  Biso   1.000  C 
  C28      1.0000 0.80443  0.78030  0.61522  Biso   1.000  C 
  C29      1.0000 0.36308  0.39460  0.37816  Biso   1.000  C 
  C30      1.0000 0.24279  0.70774  0.32774  Biso   1.000  C 
  C31      1.0000 0.18861  0.77691  0.39211  Biso   1.000  C 
  C32      1.0000 0.80147  0.17918  0.44182  Biso   1.000  C 
  H1       1.0000 0.83636  0.00008  0.90041  Biso   1.000  H 
  H2       1.0000 0.33633  0.50003  0.90067  Biso   1.000  H 
  H3       1.0000 0.70172  0.37241  0.92259  Biso   1.000  H 
  H4       1.0000 0.34985  0.30395  0.70162  Biso   1.000  H 
  H5       1.0000 0.15984  0.00002  0.09357  Biso   1.000  H 
  H6       1.0000 0.84989  0.19604  0.70152  Biso   1.000  H 
  H7       1.0000 0.29212  0.80259  0.93880  Biso   1.000  H 
  H8       1.0000 0.13946  0.20010  0.31242  Biso   1.000  H 
  H9       1.0000 0.29212  0.19743  0.93881  Biso   1.000  H 
  H10      1.0000 0.65980  0.50002  0.09385  Biso   1.000  H 
  H11      1.0000 0.20169  0.12759  0.92261  Biso   1.000  H 
  H12      1.0000 0.84988  0.80397  0.70153  Biso   1.000  H 
  H13      1.0000 0.63944  0.29990  0.31246  Biso   1.000  H 
  H14      1.0000 0.63943  0.70009  0.31249  Biso   1.000  H 
  H15      1.0000 0.23916  0.67479  0.19514  Biso   1.000  H 
  H16      1.0000 0.23915  0.32520  0.19513  Biso   1.000  H 
  H17      1.0000 0.20168  0.87242  0.92261  Biso   1.000  H 
  H18      1.0000 0.13945  0.79988  0.31241  Biso   1.000  H 
  H19      1.0000 0.73916  0.17482  0.19509  Biso   1.000  H 
  H20      1.0000 0.34985  0.69606  0.70163  Biso   1.000  H 
  H21      1.0000 0.79216  0.30256  0.93878  Biso   1.000  H 
  H22      1.0000 0.73915  0.82517  0.19509  Biso   1.000  H 
  H23      1.0000 0.70170  0.62761  0.92263  Biso   1.000  H 
  H24      1.0000 0.79213  0.69746  0.93882  Biso   1.000  H 
  N1       1.0000 0.75839  0.32860  0.84937  Biso   1.000  N 
  N2       1.0000 0.75838  0.67141  0.84940  Biso   1.000  N 
  N3       1.0000 0.25837  0.17139  0.84937  Biso   1.000  N 
  N4       1.0000 0.25836  0.82862  0.84938  Biso   1.000  N 
  O1       1.0000 0.10740  0.07761  0.47493  Biso   1.000  O 
  O2       1.0000 0.88948  0.07638  0.52046  Biso   1.000  O 
  O3       1.0000 0.92396  1.00000  0.81873  Biso   1.000  O 
  O4       1.0000 0.88629  0.92284  0.18560  Biso   1.000  O 
  O5       1.0000 0.57218  0.50000  0.17666  Biso   1.000  O 
  O6       1.0000 0.10782  0.92370  0.81196  Biso   1.000  O 
  O7       1.0000 0.07222  1.00000  0.17644  Biso   1.000  O 
  O8       1.0000 0.60735  0.57760  0.47511  Biso   1.000  O 
  O9       1.0000 0.10739  0.92238  0.47492  Biso   1.000  O 
  O10      1.0000 0.38941  0.42363  0.52066  Biso   1.000  O 
  O11      1.0000 0.88948  0.92362  0.52045  Biso   1.000  O 
  O12      1.0000 0.88628  0.07715  0.18562  Biso   1.000  O 
  O13      1.0000 0.60732  0.42237  0.47512  Biso   1.000  O 
  O14      1.0000 0.38630  0.42284  0.18571  Biso   1.000  O 
  O15      1.0000 0.10781  0.07630  0.81198  Biso   1.000  O 
  O16      1.0000 0.38628  0.57714  0.18576  Biso   1.000  O 
  O17      1.0000 0.38943  0.57638  0.52066  Biso   1.000  O 
  O18      1.0000 0.42393  0.50000  0.81892  Biso   1.000  O 
  O19      1.0000 0.60780  0.57631  0.81211  Biso   1.000  O 
  O20      1.0000 0.60781  0.42370  0.81209  Biso   1.000  O 
