data_image0
_cell_length_a       9.8336
_cell_length_b       19.3135
_cell_length_c       6.75418
_cell_angle_alpha    90.0182
_cell_angle_beta     47.215
_cell_angle_gamma    90.0158

_symmetry_space_group_name_H-M    "P 1"
_symmetry_int_tables_number       1

loop_
  _symmetry_equiv_pos_as_xyz
  'x, y, z'

loop_
  _atom_site_label
  _atom_site_occupancy
  _atom_site_fract_x
  _atom_site_fract_y
  _atom_site_fract_z
  _atom_site_thermal_displace_type
  _atom_site_B_iso_or_equiv
  _atom_site_type_symbol
  Al1      1.0000 0.99345  0.99997  0.00272  Biso   1.000  Al
  Al2      1.0000 0.49322  0.49997  0.00293  Biso   1.000  Al
  Al3      1.0000 0.99407  0.99997  0.50395  Biso   1.000  Al
  Al4      1.0000 0.49388  0.49998  0.50409  Biso   1.000  Al
  C1       1.0000 0.17670  0.89683  0.57325  Biso   1.000  C 
  C2       1.0000 0.25514  0.78547  0.67977  Biso   1.000  C 
  C3       1.0000 0.19844  0.21581  0.37929  Biso   1.000  C 
  C4       1.0000 0.67664  0.60313  0.57342  Biso   1.000  C 
  C5       1.0000 0.71365  0.67823  0.54215  Biso   1.000  C 
  C6       1.0000 0.21372  0.82173  0.54201  Biso   1.000  C 
  C7       1.0000 0.77609  0.21278  0.64856  Biso   1.000  C 
  C8       1.0000 0.72505  0.21322  0.34403  Biso   1.000  C 
  C9       1.0000 0.72501  0.78667  0.34400  Biso   1.000  C 
  C10      1.0000 0.69835  0.28406  0.37936  Biso   1.000  C 
  C11      1.0000 0.30791  0.60174  0.43648  Biso   1.000  C 
  C12      1.0000 0.26418  0.67729  0.48196  Biso   1.000  C 
  C13      1.0000 0.69835  0.71583  0.37937  Biso   1.000  C 
  C14      1.0000 0.17683  0.10312  0.57329  Biso   1.000  C 
  C15      1.0000 0.22502  0.28665  0.34396  Biso   1.000  C 
  C16      1.0000 0.27600  0.71276  0.64863  Biso   1.000  C 
  C17      1.0000 0.80811  0.10175  0.43634  Biso   1.000  C 
  C18      1.0000 0.21377  0.17822  0.54205  Biso   1.000  C 
  C19      1.0000 0.75513  0.28549  0.67980  Biso   1.000  C 
  C20      1.0000 0.75507  0.71455  0.67988  Biso   1.000  C 
  C21      1.0000 0.27596  0.28727  0.64861  Biso   1.000  C 
  C22      1.0000 0.71364  0.32174  0.54208  Biso   1.000  C 
  C23      1.0000 0.67655  0.39682  0.57335  Biso   1.000  C 
  C24      1.0000 0.25513  0.21456  0.67983  Biso   1.000  C 
  C25      1.0000 0.26415  0.32267  0.48187  Biso   1.000  C 
  C26      1.0000 0.80808  0.89822  0.43618  Biso   1.000  C 
  C27      1.0000 0.76420  0.82267  0.48188  Biso   1.000  C 
  C28      1.0000 0.77598  0.78726  0.64862  Biso   1.000  C 
  C29      1.0000 0.30792  0.39822  0.43628  Biso   1.000  C 
  C30      1.0000 0.22499  0.71324  0.34405  Biso   1.000  C 
  C31      1.0000 0.19837  0.78408  0.37933  Biso   1.000  C 
  C32      1.0000 0.76430  0.17729  0.48188  Biso   1.000  C 
  H1       1.0000 0.74682  0.00045  0.99751  Biso   1.000  H 
  H2       1.0000 0.24659  0.50034  0.99765  Biso   1.000  H 
  H3       1.0000 0.76386  0.36958  0.85400  Biso   1.000  H 
  H4       1.0000 0.30572  0.31631  0.75375  Biso   1.000  H 
  H5       1.0000 0.24235  0.00012  0.00944  Biso   1.000  H 
  H6       1.0000 0.80594  0.18381  0.75368  Biso   1.000  H 
  H7       1.0000 0.34576  0.79223  0.87642  Biso   1.000  H 
  H8       1.0000 0.16032  0.18686  0.28521  Biso   1.000  H 
  H9       1.0000 0.34572  0.20791  0.87651  Biso   1.000  H 
  H10      1.0000 0.74216  0.50011  0.00955  Biso   1.000  H 
  H11      1.0000 0.26408  0.13055  0.85393  Biso   1.000  H 
  H12      1.0000 0.80579  0.81629  0.75371  Biso   1.000  H 
  H13      1.0000 0.66008  0.31293  0.28537  Biso   1.000  H 
  H14      1.0000 0.66017  0.68689  0.28535  Biso   1.000  H 
  H15      1.0000 0.21278  0.68476  0.21759  Biso   1.000  H 
  H16      1.0000 0.21282  0.31506  0.21746  Biso   1.000  H 
  H17      1.0000 0.26403  0.86955  0.85388  Biso   1.000  H 
  H18      1.0000 0.16018  0.81296  0.28530  Biso   1.000  H 
  H19      1.0000 0.71287  0.18474  0.21757  Biso   1.000  H 
  H20      1.0000 0.30581  0.68378  0.75373  Biso   1.000  H 
  H21      1.0000 0.84572  0.29228  0.87646  Biso   1.000  H 
  H22      1.0000 0.71284  0.81509  0.21749  Biso   1.000  H 
  H23      1.0000 0.76389  0.63053  0.85408  Biso   1.000  H 
  H24      1.0000 0.84564  0.70788  0.87658  Biso   1.000  H 
  N1       1.0000 0.77504  0.31721  0.83842  Biso   1.000  N 
  N2       1.0000 0.77497  0.68290  0.83855  Biso   1.000  N 
  N3       1.0000 0.27506  0.18292  0.83849  Biso   1.000  N 
  N4       1.0000 0.27509  0.81717  0.83838  Biso   1.000  N 
  O1       1.0000 0.15647  0.07359  0.42535  Biso   1.000  O 
  O2       1.0000 0.82813  0.07167  0.58303  Biso   1.000  O 
  O3       1.0000 0.88096  0.99999  0.86496  Biso   1.000  O 
  O4       1.0000 0.82974  0.92699  0.24625  Biso   1.000  O 
  O5       1.0000 0.60801  0.49998  0.14052  Biso   1.000  O 
  O6       1.0000 0.16281  0.92903  0.75319  Biso   1.000  O 
  O7       1.0000 0.10820  0.99997  0.14040  Biso   1.000  O 
  O8       1.0000 0.65626  0.57360  0.42550  Biso   1.000  O 
  O9       1.0000 0.15617  0.92629  0.42549  Biso   1.000  O 
  O10      1.0000 0.32776  0.42836  0.58313  Biso   1.000  O 
  O11      1.0000 0.82792  0.92837  0.58302  Biso   1.000  O 
  O12      1.0000 0.82953  0.07289  0.24667  Biso   1.000  O 
  O13      1.0000 0.65602  0.42630  0.42560  Biso   1.000  O 
  O14      1.0000 0.32951  0.42700  0.24641  Biso   1.000  O 
  O15      1.0000 0.16282  0.07098  0.75338  Biso   1.000  O 
  O16      1.0000 0.32932  0.57288  0.24680  Biso   1.000  O 
  O17      1.0000 0.32790  0.57167  0.58319  Biso   1.000  O 
  O18      1.0000 0.38073  0.49999  0.86513  Biso   1.000  O 
  O19      1.0000 0.66260  0.57099  0.75353  Biso   1.000  O 
  O20      1.0000 0.66262  0.42902  0.75333  Biso   1.000  O 
