data_image0
_cell_length_a       11.2906
_cell_length_b       18.7976
_cell_length_c       6.71033
_cell_angle_alpha    90.0032
_cell_angle_beta     54.8077
_cell_angle_gamma    90.0018

_symmetry_space_group_name_H-M    "P 1"
_symmetry_int_tables_number       1

loop_
  _symmetry_equiv_pos_as_xyz
  'x, y, z'

loop_
  _atom_site_label
  _atom_site_occupancy
  _atom_site_fract_x
  _atom_site_fract_y
  _atom_site_fract_z
  _atom_site_thermal_displace_type
  _atom_site_B_iso_or_equiv
  _atom_site_type_symbol
  Al1      1.0000 0.99454  0.99999  0.00143  Biso   1.000  Al
  Al2      1.0000 0.49456  0.49999  0.00139  Biso   1.000  Al
  Al3      1.0000 0.99623  0.99999  0.50169  Biso   1.000  Al
  Al4      1.0000 0.49630  0.49999  0.50153  Biso   1.000  Al
  C1       1.0000 0.14815  0.89540  0.60339  Biso   1.000  C 
  C2       1.0000 0.25882  0.78842  0.67312  Biso   1.000  C 
  C3       1.0000 0.18491  0.21973  0.39523  Biso   1.000  C 
  C4       1.0000 0.64825  0.60457  0.60328  Biso   1.000  C 
  C5       1.0000 0.70001  0.67893  0.55562  Biso   1.000  C 
  C6       1.0000 0.19995  0.82105  0.55571  Biso   1.000  C 
  C7       1.0000 0.80026  0.21615  0.62039  Biso   1.000  C 
  C8       1.0000 0.72779  0.20973  0.34305  Biso   1.000  C 
  C9       1.0000 0.72780  0.79024  0.34303  Biso   1.000  C 
  C10      1.0000 0.68491  0.28023  0.39518  Biso   1.000  C 
  C11      1.0000 0.34173  0.60296  0.40076  Biso   1.000  C 
  C12      1.0000 0.28645  0.67765  0.45811  Biso   1.000  C 
  C13      1.0000 0.68492  0.71974  0.39517  Biso   1.000  C 
  C14      1.0000 0.14820  0.10458  0.60338  Biso   1.000  C 
  C15      1.0000 0.22783  0.29023  0.34302  Biso   1.000  C 
  C16      1.0000 0.30027  0.71615  0.62039  Biso   1.000  C 
  C17      1.0000 0.84166  0.10295  0.40087  Biso   1.000  C 
  C18      1.0000 0.19997  0.17894  0.55572  Biso   1.000  C 
  C19      1.0000 0.75885  0.28842  0.67305  Biso   1.000  C 
  C20      1.0000 0.75885  0.71157  0.67306  Biso   1.000  C 
  C21      1.0000 0.30027  0.28385  0.62039  Biso   1.000  C 
  C22      1.0000 0.69999  0.32105  0.55562  Biso   1.000  C 
  C23      1.0000 0.64822  0.39541  0.60327  Biso   1.000  C 
  C24      1.0000 0.25884  0.21159  0.67313  Biso   1.000  C 
  C25      1.0000 0.28645  0.32233  0.45810  Biso   1.000  C 
  C26      1.0000 0.84168  0.89703  0.40082  Biso   1.000  C 
  C27      1.0000 0.78642  0.82234  0.45813  Biso   1.000  C 
  C28      1.0000 0.80026  0.78385  0.62038  Biso   1.000  C 
  C29      1.0000 0.34175  0.39702  0.40071  Biso   1.000  C 
  C30      1.0000 0.22781  0.70974  0.34303  Biso   1.000  C 
  C31      1.0000 0.18489  0.78024  0.39522  Biso   1.000  C 
  C32      1.0000 0.78640  0.17765  0.45816  Biso   1.000  C 
  H1       1.0000 0.80254  0.00028  0.93763  Biso   1.000  H 
  H2       1.0000 0.30262  0.50015  0.93747  Biso   1.000  H 
  H3       1.0000 0.72909  0.37170  0.89308  Biso   1.000  H 
  H4       1.0000 0.34539  0.31013  0.70756  Biso   1.000  H 
  H5       1.0000 0.18987  0.00007  0.06349  Biso   1.000  H 
  H6       1.0000 0.84536  0.18989  0.70759  Biso   1.000  H 
  H7       1.0000 0.31591  0.79752  0.91273  Biso   1.000  H 
  H8       1.0000 0.13511  0.19387  0.31545  Biso   1.000  H 
  H9       1.0000 0.31588  0.20250  0.91280  Biso   1.000  H 
  H10      1.0000 0.68995  0.50006  0.06334  Biso   1.000  H 
  H11      1.0000 0.22901  0.12833  0.89325  Biso   1.000  H 
  H12      1.0000 0.84536  0.81012  0.70758  Biso   1.000  H 
  H13      1.0000 0.63512  0.30609  0.31537  Biso   1.000  H 
  H14      1.0000 0.63512  0.69387  0.31540  Biso   1.000  H 
  H15      1.0000 0.21530  0.67867  0.21926  Biso   1.000  H 
  H16      1.0000 0.21533  0.32129  0.21923  Biso   1.000  H 
  H17      1.0000 0.22903  0.87169  0.89320  Biso   1.000  H 
  H18      1.0000 0.13510  0.80610  0.31543  Biso   1.000  H 
  H19      1.0000 0.71527  0.17866  0.21928  Biso   1.000  H 
  H20      1.0000 0.34539  0.68989  0.70756  Biso   1.000  H 
  H21      1.0000 0.81597  0.29754  0.91262  Biso   1.000  H 
  H22      1.0000 0.71529  0.82130  0.21925  Biso   1.000  H 
  H23      1.0000 0.72907  0.62832  0.89314  Biso   1.000  H 
  H24      1.0000 0.81595  0.70248  0.91267  Biso   1.000  H 
  N1       1.0000 0.77995  0.32422  0.82634  Biso   1.000  N 
  N2       1.0000 0.77997  0.67579  0.82635  Biso   1.000  N 
  N3       1.0000 0.27992  0.17580  0.82645  Biso   1.000  N 
  N4       1.0000 0.27991  0.82421  0.82644  Biso   1.000  N 
  O1       1.0000 0.12450  0.07521  0.45774  Biso   1.000  O 
  O2       1.0000 0.86588  0.07341  0.54487  Biso   1.000  O 
  O3       1.0000 0.90742  0.00000  0.83693  Biso   1.000  O 
  O4       1.0000 0.86472  0.92536  0.20866  Biso   1.000  O 
  O5       1.0000 0.58505  0.50000  0.16402  Biso   1.000  O 
  O6       1.0000 0.12775  0.92667  0.79136  Biso   1.000  O 
  O7       1.0000 0.08499  0.00000  0.16417  Biso   1.000  O 
  O8       1.0000 0.62457  0.57521  0.45762  Biso   1.000  O 
  O9       1.0000 0.12444  0.92475  0.45778  Biso   1.000  O 
  O10      1.0000 0.36594  0.42660  0.54470  Biso   1.000  O 
  O11      1.0000 0.86586  0.92659  0.54485  Biso   1.000  O 
  O12      1.0000 0.86466  0.07460  0.20876  Biso   1.000  O 
  O13      1.0000 0.62451  0.42475  0.45764  Biso   1.000  O 
  O14      1.0000 0.36476  0.42535  0.20857  Biso   1.000  O 
  O15      1.0000 0.12778  0.07332  0.79138  Biso   1.000  O 
  O16      1.0000 0.36473  0.57460  0.20866  Biso   1.000  O 
  O17      1.0000 0.36596  0.57341  0.54474  Biso   1.000  O 
  O18      1.0000 0.40749  0.50000  0.83678  Biso   1.000  O 
  O19      1.0000 0.62783  0.57332  0.79129  Biso   1.000  O 
  O20      1.0000 0.62783  0.42668  0.79123  Biso   1.000  O 
