data_image0
_cell_length_a       10.6476
_cell_length_b       19.065
_cell_length_c       6.72086
_cell_angle_alpha    90.0063
_cell_angle_beta     51.7399
_cell_angle_gamma    90.0028

_symmetry_space_group_name_H-M    "P 1"
_symmetry_int_tables_number       1

loop_
  _symmetry_equiv_pos_as_xyz
  'x, y, z'

loop_
  _atom_site_label
  _atom_site_occupancy
  _atom_site_fract_x
  _atom_site_fract_y
  _atom_site_fract_z
  _atom_site_thermal_displace_type
  _atom_site_B_iso_or_equiv
  _atom_site_type_symbol
  Al1      1.0000 0.99382  0.99999  0.00234  Biso   1.000  Al
  Al2      1.0000 0.49381  0.50000  0.00218  Biso   1.000  Al
  Al3      1.0000 0.99458  0.99998  0.50350  Biso   1.000  Al
  Al4      1.0000 0.49468  0.49999  0.50320  Biso   1.000  Al
  C1       1.0000 0.15867  0.89617  0.59183  Biso   1.000  C 
  C2       1.0000 0.26102  0.78739  0.67144  Biso   1.000  C 
  C3       1.0000 0.18672  0.21809  0.39244  Biso   1.000  C 
  C4       1.0000 0.65870  0.60381  0.59173  Biso   1.000  C 
  C5       1.0000 0.70544  0.67847  0.54964  Biso   1.000  C 
  C6       1.0000 0.20542  0.82152  0.54968  Biso   1.000  C 
  C7       1.0000 0.79410  0.21474  0.62795  Biso   1.000  C 
  C8       1.0000 0.72254  0.21104  0.34807  Biso   1.000  C 
  C9       1.0000 0.72259  0.78891  0.34799  Biso   1.000  C 
  C10      1.0000 0.68670  0.28185  0.39246  Biso   1.000  C 
  C11      1.0000 0.32842  0.60231  0.41520  Biso   1.000  C 
  C12      1.0000 0.27736  0.67740  0.46812  Biso   1.000  C 
  C13      1.0000 0.68671  0.71811  0.39246  Biso   1.000  C 
  C14      1.0000 0.15866  0.10381  0.59189  Biso   1.000  C 
  C15      1.0000 0.22262  0.28889  0.34786  Biso   1.000  C 
  C16      1.0000 0.29417  0.71473  0.62782  Biso   1.000  C 
  C17      1.0000 0.82831  0.10229  0.41546  Biso   1.000  C 
  C18      1.0000 0.20539  0.17847  0.54973  Biso   1.000  C 
  C19      1.0000 0.76102  0.28740  0.67140  Biso   1.000  C 
  C20      1.0000 0.76103  0.71260  0.67141  Biso   1.000  C 
  C21      1.0000 0.29414  0.28527  0.62783  Biso   1.000  C 
  C22      1.0000 0.70544  0.32152  0.54959  Biso   1.000  C 
  C23      1.0000 0.65870  0.39618  0.59168  Biso   1.000  C 
  C24      1.0000 0.26097  0.21263  0.67149  Biso   1.000  C 
  C25      1.0000 0.27736  0.32258  0.46807  Biso   1.000  C 
  C26      1.0000 0.82838  0.89768  0.41533  Biso   1.000  C 
  C27      1.0000 0.77730  0.82259  0.46823  Biso   1.000  C 
  C28      1.0000 0.79413  0.78526  0.62791  Biso   1.000  C 
  C29      1.0000 0.32844  0.39767  0.41512  Biso   1.000  C 
  C30      1.0000 0.22263  0.71108  0.34790  Biso   1.000  C 
  C31      1.0000 0.18674  0.78189  0.39243  Biso   1.000  C 
  C32      1.0000 0.77725  0.17738  0.46833  Biso   1.000  C 
  H1       1.0000 0.78125  0.00021  0.96169  Biso   1.000  H 
  H2       1.0000 0.28129  0.50009  0.96146  Biso   1.000  H 
  H3       1.0000 0.74465  0.37144  0.87589  Biso   1.000  H 
  H4       1.0000 0.33580  0.31274  0.71939  Biso   1.000  H 
  H5       1.0000 0.20890  0.00006  0.04389  Biso   1.000  H 
  H6       1.0000 0.83574  0.18730  0.71960  Biso   1.000  H 
  H7       1.0000 0.32945  0.79546  0.89760  Biso   1.000  H 
  H8       1.0000 0.13915  0.19091  0.30961  Biso   1.000  H 
  H9       1.0000 0.32938  0.20459  0.89769  Biso   1.000  H 
  H10      1.0000 0.70897  0.50005  0.04357  Biso   1.000  H 
  H11      1.0000 0.24440  0.12866  0.87631  Biso   1.000  H 
  H12      1.0000 0.83575  0.81272  0.71955  Biso   1.000  H 
  H13      1.0000 0.63921  0.30901  0.30950  Biso   1.000  H 
  H14      1.0000 0.63918  0.69094  0.30956  Biso   1.000  H 
  H15      1.0000 0.20715  0.68102  0.22668  Biso   1.000  H 
  H16      1.0000 0.20715  0.31893  0.22663  Biso   1.000  H 
  H17      1.0000 0.24447  0.87139  0.87622  Biso   1.000  H 
  H18      1.0000 0.13918  0.80904  0.30956  Biso   1.000  H 
  H19      1.0000 0.70701  0.18097  0.22694  Biso   1.000  H 
  H20      1.0000 0.33583  0.68728  0.71941  Biso   1.000  H 
  H21      1.0000 0.82960  0.29553  0.89737  Biso   1.000  H 
  H22      1.0000 0.70707  0.81897  0.22685  Biso   1.000  H 
  H23      1.0000 0.74458  0.62860  0.87604  Biso   1.000  H 
  H24      1.0000 0.82954  0.70453  0.89748  Biso   1.000  H 
  N1       1.0000 0.78636  0.32173  0.82060  Biso   1.000  N 
  N2       1.0000 0.78637  0.67830  0.82063  Biso   1.000  N 
  N3       1.0000 0.28620  0.17834  0.82087  Biso   1.000  N 
  N4       1.0000 0.28627  0.82169  0.82078  Biso   1.000  N 
  O1       1.0000 0.13548  0.07444  0.44609  Biso   1.000  O 
  O2       1.0000 0.85086  0.07252  0.56065  Biso   1.000  O 
  O3       1.0000 0.89701  0.99999  0.84848  Biso   1.000  O 
  O4       1.0000 0.85145  0.92615  0.22333  Biso   1.000  O 
  O5       1.0000 0.59321  0.50000  0.15558  Biso   1.000  O 
  O6       1.0000 0.14075  0.92788  0.77697  Biso   1.000  O 
  O7       1.0000 0.09314  0.99999  0.15582  Biso   1.000  O 
  O8       1.0000 0.63555  0.57444  0.44591  Biso   1.000  O 
  O9       1.0000 0.13545  0.92553  0.44609  Biso   1.000  O 
  O10      1.0000 0.35102  0.42747  0.56025  Biso   1.000  O 
  O11      1.0000 0.85090  0.92747  0.56054  Biso   1.000  O 
  O12      1.0000 0.85134  0.07379  0.22351  Biso   1.000  O 
  O13      1.0000 0.63552  0.42553  0.44588  Biso   1.000  O 
  O14      1.0000 0.35142  0.42616  0.22323  Biso   1.000  O 
  O15      1.0000 0.14072  0.07212  0.77706  Biso   1.000  O 
  O16      1.0000 0.35135  0.57379  0.22336  Biso   1.000  O 
  O17      1.0000 0.35105  0.57254  0.56028  Biso   1.000  O 
  O18      1.0000 0.39704  0.50000  0.84827  Biso   1.000  O 
  O19      1.0000 0.64073  0.57212  0.77695  Biso   1.000  O 
  O20      1.0000 0.64075  0.42788  0.77687  Biso   1.000  O 
