data_image0
_cell_length_a       11.8028
_cell_length_b       18.549
_cell_length_c       6.70637
_cell_angle_alpha    90.004
_cell_angle_beta     56.8728
_cell_angle_gamma    90.0054

_symmetry_space_group_name_H-M    "P 1"
_symmetry_int_tables_number       1

loop_
  _symmetry_equiv_pos_as_xyz
  'x, y, z'

loop_
  _atom_site_label
  _atom_site_occupancy
  _atom_site_fract_x
  _atom_site_fract_y
  _atom_site_fract_z
  _atom_site_thermal_displace_type
  _atom_site_B_iso_or_equiv
  _atom_site_type_symbol
  Al1      1.0000 0.99512  0.99999  0.00069  Biso   1.000  Al
  Al2      1.0000 0.49518  0.49999  0.00071  Biso   1.000  Al
  Al3      1.0000 0.99704  0.99999  0.50065  Biso   1.000  Al
  Al4      1.0000 0.49707  0.49999  0.50061  Biso   1.000  Al
  C1       1.0000 0.14149  0.89476  0.61063  Biso   1.000  C 
  C2       1.0000 0.25597  0.78920  0.67610  Biso   1.000  C 
  C3       1.0000 0.18568  0.22081  0.39479  Biso   1.000  C 
  C4       1.0000 0.64160  0.60520  0.61064  Biso   1.000  C 
  C5       1.0000 0.69674  0.67926  0.55945  Biso   1.000  C 
  C6       1.0000 0.19668  0.82072  0.55945  Biso   1.000  C 
  C7       1.0000 0.80264  0.21733  0.61739  Biso   1.000  C 
  C8       1.0000 0.73314  0.20905  0.33746  Biso   1.000  C 
  C9       1.0000 0.73312  0.79093  0.33744  Biso   1.000  C 
  C10      1.0000 0.68568  0.27918  0.39483  Biso   1.000  C 
  C11      1.0000 0.35034  0.60370  0.39129  Biso   1.000  C 
  C12      1.0000 0.29257  0.67812  0.45121  Biso   1.000  C 
  C13      1.0000 0.68569  0.72079  0.39480  Biso   1.000  C 
  C14      1.0000 0.14157  0.10521  0.61061  Biso   1.000  C 
  C15      1.0000 0.23315  0.29094  0.33743  Biso   1.000  C 
  C16      1.0000 0.30266  0.71734  0.61737  Biso   1.000  C 
  C17      1.0000 0.85030  0.10371  0.39126  Biso   1.000  C 
  C18      1.0000 0.19672  0.17926  0.55942  Biso   1.000  C 
  C19      1.0000 0.75600  0.28919  0.67612  Biso   1.000  C 
  C20      1.0000 0.75601  0.71082  0.67608  Biso   1.000  C 
  C21      1.0000 0.30265  0.28267  0.61735  Biso   1.000  C 
  C22      1.0000 0.69671  0.32073  0.55948  Biso   1.000  C 
  C23      1.0000 0.64156  0.39477  0.61064  Biso   1.000  C 
  C24      1.0000 0.25599  0.21080  0.67608  Biso   1.000  C 
  C25      1.0000 0.29255  0.32188  0.45119  Biso   1.000  C 
  C26      1.0000 0.85024  0.89630  0.39126  Biso   1.000  C 
  C27      1.0000 0.79251  0.82188  0.45118  Biso   1.000  C 
  C28      1.0000 0.80263  0.78269  0.61736  Biso   1.000  C 
  C29      1.0000 0.35030  0.39629  0.39127  Biso   1.000  C 
  C30      1.0000 0.23319  0.70903  0.33742  Biso   1.000  C 
  C31      1.0000 0.18569  0.77916  0.39478  Biso   1.000  C 
  C32      1.0000 0.79254  0.17812  0.45120  Biso   1.000  C 
  H1       1.0000 0.81613  0.00011  0.92287  Biso   1.000  H 
  H2       1.0000 0.31618  0.50007  0.92292  Biso   1.000  H 
  H3       1.0000 0.71864  0.37206  0.90443  Biso   1.000  H 
  H4       1.0000 0.34824  0.30820  0.70369  Biso   1.000  H 
  H5       1.0000 0.17776  0.00004  0.07610  Biso   1.000  H 
  H6       1.0000 0.84825  0.19181  0.70371  Biso   1.000  H 
  H7       1.0000 0.30686  0.79938  0.92294  Biso   1.000  H 
  H8       1.0000 0.13562  0.19587  0.31574  Biso   1.000  H 
  H9       1.0000 0.30686  0.20067  0.92294  Biso   1.000  H 
  H10      1.0000 0.67781  0.50003  0.07616  Biso   1.000  H 
  H11      1.0000 0.21856  0.12795  0.90445  Biso   1.000  H 
  H12      1.0000 0.84823  0.80822  0.70368  Biso   1.000  H 
  H13      1.0000 0.63563  0.30412  0.31576  Biso   1.000  H 
  H14      1.0000 0.63564  0.69584  0.31575  Biso   1.000  H 
  H15      1.0000 0.22361  0.67730  0.21074  Biso   1.000  H 
  H16      1.0000 0.22355  0.32266  0.21076  Biso   1.000  H 
  H17      1.0000 0.21855  0.87208  0.90445  Biso   1.000  H 
  H18      1.0000 0.13563  0.80408  0.31571  Biso   1.000  H 
  H19      1.0000 0.72356  0.17732  0.21077  Biso   1.000  H 
  H20      1.0000 0.34825  0.69183  0.70375  Biso   1.000  H 
  H21      1.0000 0.80692  0.29934  0.92291  Biso   1.000  H 
  H22      1.0000 0.72352  0.82264  0.21076  Biso   1.000  H 
  H23      1.0000 0.71864  0.62797  0.90444  Biso   1.000  H 
  H24      1.0000 0.80693  0.70072  0.92289  Biso   1.000  H 
  N1       1.0000 0.77245  0.32590  0.83444  Biso   1.000  N 
  N2       1.0000 0.77247  0.67413  0.83441  Biso   1.000  N 
  N3       1.0000 0.27242  0.17410  0.83442  Biso   1.000  N 
  N4       1.0000 0.27238  0.82592  0.83444  Biso   1.000  N 
  O1       1.0000 0.11731  0.07589  0.46532  Biso   1.000  O 
  O2       1.0000 0.87535  0.07429  0.53466  Biso   1.000  O 
  O3       1.0000 0.91402  0.00001  0.82959  Biso   1.000  O 
  O4       1.0000 0.87341  0.92451  0.19890  Biso   1.000  O 
  O5       1.0000 0.57990  0.49998  0.16941  Biso   1.000  O 
  O6       1.0000 0.11973  0.92579  0.80000  Biso   1.000  O 
  O7       1.0000 0.07985  0.99999  0.16940  Biso   1.000  O 
  O8       1.0000 0.61730  0.57589  0.46540  Biso   1.000  O 
  O9       1.0000 0.11710  0.92401  0.46541  Biso   1.000  O 
  O10      1.0000 0.37527  0.42575  0.53474  Biso   1.000  O 
  O11      1.0000 0.87517  0.92578  0.53473  Biso   1.000  O 
  O12      1.0000 0.87338  0.07545  0.19900  Biso   1.000  O 
  O13      1.0000 0.61719  0.42404  0.46545  Biso   1.000  O 
  O14      1.0000 0.37346  0.42452  0.19893  Biso   1.000  O 
  O15      1.0000 0.11972  0.07425  0.80011  Biso   1.000  O 
  O16      1.0000 0.37345  0.57545  0.19899  Biso   1.000  O 
  O17      1.0000 0.37537  0.57428  0.53472  Biso   1.000  O 
  O18      1.0000 0.41406  0.50000  0.82960  Biso   1.000  O 
  O19      1.0000 0.61978  0.57423  0.80012  Biso   1.000  O 
  O20      1.0000 0.61978  0.42578  0.80006  Biso   1.000  O 
