data_image0
_cell_length_a       12.1392
_cell_length_b       18.3771
_cell_length_c       6.70734
_cell_angle_alpha    90.0035
_cell_angle_beta     57.9577
_cell_angle_gamma    90.0029

_symmetry_space_group_name_H-M    "P 1"
_symmetry_int_tables_number       1

loop_
  _symmetry_equiv_pos_as_xyz
  'x, y, z'

loop_
  _atom_site_label
  _atom_site_occupancy
  _atom_site_fract_x
  _atom_site_fract_y
  _atom_site_fract_z
  _atom_site_thermal_displace_type
  _atom_site_B_iso_or_equiv
  _atom_site_type_symbol
  Al1      1.0000 0.99473  0.99998  0.00075  Biso   1.000  Al
  Al2      1.0000 0.49476  0.49999  0.00082  Biso   1.000  Al
  Al3      1.0000 0.99746  0.99999  0.50015  Biso   1.000  Al
  Al4      1.0000 0.49747  0.50000  0.50023  Biso   1.000  Al
  C1       1.0000 0.13784  0.89441  0.61427  Biso   1.000  C 
  C2       1.0000 0.25418  0.78995  0.67785  Biso   1.000  C 
  C3       1.0000 0.18701  0.22139  0.39364  Biso   1.000  C 
  C4       1.0000 0.63789  0.60558  0.61441  Biso   1.000  C 
  C5       1.0000 0.69515  0.67933  0.56120  Biso   1.000  C 
  C6       1.0000 0.19513  0.82066  0.56113  Biso   1.000  C 
  C7       1.0000 0.80387  0.21839  0.61592  Biso   1.000  C 
  C8       1.0000 0.73688  0.20872  0.33393  Biso   1.000  C 
  C9       1.0000 0.73689  0.79124  0.33391  Biso   1.000  C 
  C10      1.0000 0.68700  0.27860  0.39369  Biso   1.000  C 
  C11      1.0000 0.35498  0.60434  0.38676  Biso   1.000  C 
  C12      1.0000 0.29613  0.67864  0.44770  Biso   1.000  C 
  C13      1.0000 0.68702  0.72136  0.39369  Biso   1.000  C 
  C14      1.0000 0.13785  0.10558  0.61431  Biso   1.000  C 
  C15      1.0000 0.23690  0.29127  0.33393  Biso   1.000  C 
  C16      1.0000 0.30384  0.71842  0.61601  Biso   1.000  C 
  C17      1.0000 0.85496  0.10433  0.38665  Biso   1.000  C 
  C18      1.0000 0.19513  0.17933  0.56113  Biso   1.000  C 
  C19      1.0000 0.75421  0.28992  0.67782  Biso   1.000  C 
  C20      1.0000 0.75422  0.71008  0.67784  Biso   1.000  C 
  C21      1.0000 0.30385  0.28159  0.61597  Biso   1.000  C 
  C22      1.0000 0.69513  0.32066  0.56119  Biso   1.000  C 
  C23      1.0000 0.63786  0.39440  0.61438  Biso   1.000  C 
  C24      1.0000 0.25420  0.21006  0.67782  Biso   1.000  C 
  C25      1.0000 0.29613  0.32136  0.44766  Biso   1.000  C 
  C26      1.0000 0.85497  0.89565  0.38658  Biso   1.000  C 
  C27      1.0000 0.79613  0.82135  0.44758  Biso   1.000  C 
  C28      1.0000 0.80387  0.78161  0.61592  Biso   1.000  C 
  C29      1.0000 0.35497  0.39565  0.38672  Biso   1.000  C 
  C30      1.0000 0.23690  0.70871  0.33396  Biso   1.000  C 
  C31      1.0000 0.18701  0.77859  0.39365  Biso   1.000  C 
  C32      1.0000 0.79613  0.17863  0.44761  Biso   1.000  C 
  H1       1.0000 0.82308  0.00019  0.91455  Biso   1.000  H 
  H2       1.0000 0.32312  0.50009  0.91474  Biso   1.000  H 
  H3       1.0000 0.71226  0.37242  0.91116  Biso   1.000  H 
  H4       1.0000 0.34977  0.30640  0.70173  Biso   1.000  H 
  H5       1.0000 0.17046  0.00005  0.08283  Biso   1.000  H 
  H6       1.0000 0.84979  0.19358  0.70165  Biso   1.000  H 
  H7       1.0000 0.30119  0.80071  0.92887  Biso   1.000  H 
  H8       1.0000 0.13737  0.19709  0.31425  Biso   1.000  H 
  H9       1.0000 0.30122  0.19933  0.92883  Biso   1.000  H 
  H10      1.0000 0.67050  0.50004  0.08300  Biso   1.000  H 
  H11      1.0000 0.21221  0.12757  0.91114  Biso   1.000  H 
  H12      1.0000 0.84979  0.80644  0.70164  Biso   1.000  H 
  H13      1.0000 0.63735  0.30290  0.31431  Biso   1.000  H 
  H14      1.0000 0.63736  0.69705  0.31433  Biso   1.000  H 
  H15      1.0000 0.22940  0.67643  0.20547  Biso   1.000  H 
  H16      1.0000 0.22938  0.32353  0.20544  Biso   1.000  H 
  H17      1.0000 0.21221  0.87246  0.91113  Biso   1.000  H 
  H18      1.0000 0.13737  0.80287  0.31424  Biso   1.000  H 
  H19      1.0000 0.72935  0.17646  0.20544  Biso   1.000  H 
  H20      1.0000 0.34977  0.69362  0.70178  Biso   1.000  H 
  H21      1.0000 0.80126  0.30066  0.92881  Biso   1.000  H 
  H22      1.0000 0.72934  0.82349  0.20543  Biso   1.000  H 
  H23      1.0000 0.71225  0.62760  0.91120  Biso   1.000  H 
  H24      1.0000 0.80126  0.69938  0.92884  Biso   1.000  H 
  N1       1.0000 0.76761  0.32718  0.83935  Biso   1.000  N 
  N2       1.0000 0.76761  0.67285  0.83939  Biso   1.000  N 
  N3       1.0000 0.26758  0.17281  0.83935  Biso   1.000  N 
  N4       1.0000 0.26755  0.82722  0.83939  Biso   1.000  N 
  O1       1.0000 0.11350  0.07634  0.46899  Biso   1.000  O 
  O2       1.0000 0.88055  0.07504  0.52954  Biso   1.000  O 
  O3       1.0000 0.91712  1.00000  0.82602  Biso   1.000  O 
  O4       1.0000 0.87771  0.92395  0.19462  Biso   1.000  O 
  O5       1.0000 0.57645  0.49999  0.17258  Biso   1.000  O 
  O6       1.0000 0.11466  0.92516  0.80495  Biso   1.000  O 
  O7       1.0000 0.07642  0.99999  0.17246  Biso   1.000  O 
  O8       1.0000 0.61351  0.57632  0.46914  Biso   1.000  O 
  O9       1.0000 0.11344  0.92362  0.46900  Biso   1.000  O 
  O10      1.0000 0.38050  0.42497  0.52968  Biso   1.000  O 
  O11      1.0000 0.88049  0.92499  0.52951  Biso   1.000  O 
  O12      1.0000 0.87765  0.07599  0.19476  Biso   1.000  O 
  O13      1.0000 0.61344  0.42363  0.46914  Biso   1.000  O 
  O14      1.0000 0.37772  0.42398  0.19477  Biso   1.000  O 
  O15      1.0000 0.11463  0.07486  0.80507  Biso   1.000  O 
  O16      1.0000 0.37770  0.57600  0.19485  Biso   1.000  O 
  O17      1.0000 0.38053  0.57505  0.52969  Biso   1.000  O 
  O18      1.0000 0.41716  0.50000  0.82613  Biso   1.000  O 
  O19      1.0000 0.61470  0.57485  0.80515  Biso   1.000  O 
  O20      1.0000 0.61468  0.42514  0.80509  Biso   1.000  O 
