data_image0
_cell_length_a       10.8256
_cell_length_b       18.9965
_cell_length_c       6.71483
_cell_angle_alpha    90.006
_cell_angle_beta     52.6409
_cell_angle_gamma    90.0033

_symmetry_space_group_name_H-M    "P 1"
_symmetry_int_tables_number       1

loop_
  _symmetry_equiv_pos_as_xyz
  'x, y, z'

loop_
  _atom_site_label
  _atom_site_occupancy
  _atom_site_fract_x
  _atom_site_fract_y
  _atom_site_fract_z
  _atom_site_thermal_displace_type
  _atom_site_B_iso_or_equiv
  _atom_site_type_symbol
  Al1      1.0000 0.99403  0.99999  0.00223  Biso   1.000  Al
  Al2      1.0000 0.49401  0.49999  0.00218  Biso   1.000  Al
  Al3      1.0000 0.99457  0.99999  0.50357  Biso   1.000  Al
  Al4      1.0000 0.49467  0.49999  0.50340  Biso   1.000  Al
  C1       1.0000 0.15540  0.89602  0.59531  Biso   1.000  C 
  C2       1.0000 0.26109  0.78783  0.67092  Biso   1.000  C 
  C3       1.0000 0.18567  0.21852  0.39369  Biso   1.000  C 
  C4       1.0000 0.65546  0.60395  0.59528  Biso   1.000  C 
  C5       1.0000 0.70392  0.67851  0.55112  Biso   1.000  C 
  C6       1.0000 0.20383  0.82147  0.55120  Biso   1.000  C 
  C7       1.0000 0.79662  0.21525  0.62481  Biso   1.000  C 
  C8       1.0000 0.72357  0.21068  0.34711  Biso   1.000  C 
  C9       1.0000 0.72358  0.78928  0.34707  Biso   1.000  C 
  C10      1.0000 0.68570  0.28144  0.39364  Biso   1.000  C 
  C11      1.0000 0.33219  0.60249  0.41131  Biso   1.000  C 
  C12      1.0000 0.28002  0.67751  0.46522  Biso   1.000  C 
  C13      1.0000 0.68569  0.71852  0.39366  Biso   1.000  C 
  C14      1.0000 0.15543  0.10395  0.59535  Biso   1.000  C 
  C15      1.0000 0.22359  0.28927  0.34706  Biso   1.000  C 
  C16      1.0000 0.29661  0.71525  0.62486  Biso   1.000  C 
  C17      1.0000 0.83217  0.10249  0.41134  Biso   1.000  C 
  C18      1.0000 0.20386  0.17851  0.55119  Biso   1.000  C 
  C19      1.0000 0.76113  0.28784  0.67081  Biso   1.000  C 
  C20      1.0000 0.76114  0.71217  0.67084  Biso   1.000  C 
  C21      1.0000 0.29662  0.28474  0.62481  Biso   1.000  C 
  C22      1.0000 0.70394  0.32149  0.55105  Biso   1.000  C 
  C23      1.0000 0.65547  0.39604  0.59521  Biso   1.000  C 
  C24      1.0000 0.26111  0.21216  0.67090  Biso   1.000  C 
  C25      1.0000 0.28005  0.32247  0.46515  Biso   1.000  C 
  C26      1.0000 0.83217  0.89749  0.41125  Biso   1.000  C 
  C27      1.0000 0.78003  0.82248  0.46514  Biso   1.000  C 
  C28      1.0000 0.79663  0.78476  0.62478  Biso   1.000  C 
  C29      1.0000 0.33222  0.39748  0.41123  Biso   1.000  C 
  C30      1.0000 0.22358  0.71068  0.34712  Biso   1.000  C 
  C31      1.0000 0.18564  0.78143  0.39372  Biso   1.000  C 
  C32      1.0000 0.78003  0.17750  0.46520  Biso   1.000  C 
  H1       1.0000 0.78752  0.00027  0.95515  Biso   1.000  H 
  H2       1.0000 0.28755  0.50014  0.95501  Biso   1.000  H 
  H3       1.0000 0.74041  0.37159  0.88066  Biso   1.000  H 
  H4       1.0000 0.33977  0.31182  0.71462  Biso   1.000  H 
  H5       1.0000 0.20297  0.00007  0.05066  Biso   1.000  H 
  H6       1.0000 0.83973  0.18819  0.71468  Biso   1.000  H 
  H7       1.0000 0.32566  0.79614  0.90171  Biso   1.000  H 
  H8       1.0000 0.13706  0.19176  0.31213  Biso   1.000  H 
  H9       1.0000 0.32569  0.20389  0.90168  Biso   1.000  H 
  H10      1.0000 0.70299  0.50007  0.05053  Biso   1.000  H 
  H11      1.0000 0.24026  0.12844  0.88081  Biso   1.000  H 
  H12      1.0000 0.83973  0.81184  0.71464  Biso   1.000  H 
  H13      1.0000 0.63709  0.30819  0.31210  Biso   1.000  H 
  H14      1.0000 0.63706  0.69176  0.31216  Biso   1.000  H 
  H15      1.0000 0.20848  0.68028  0.22576  Biso   1.000  H 
  H16      1.0000 0.20851  0.31965  0.22568  Biso   1.000  H 
  H17      1.0000 0.24028  0.87159  0.88078  Biso   1.000  H 
  H18      1.0000 0.13703  0.80818  0.31217  Biso   1.000  H 
  H19      1.0000 0.70845  0.18029  0.22580  Biso   1.000  H 
  H20      1.0000 0.33975  0.68818  0.71467  Biso   1.000  H 
  H21      1.0000 0.82575  0.29617  0.90154  Biso   1.000  H 
  H22      1.0000 0.70847  0.81966  0.22573  Biso   1.000  H 
  H23      1.0000 0.74033  0.62845  0.88078  Biso   1.000  H 
  H24      1.0000 0.82572  0.70390  0.90161  Biso   1.000  H 
  N1       1.0000 0.78604  0.32267  0.82016  Biso   1.000  N 
  N2       1.0000 0.78606  0.67736  0.82020  Biso   1.000  N 
  N3       1.0000 0.28599  0.17735  0.82031  Biso   1.000  N 
  N4       1.0000 0.28597  0.82267  0.82031  Biso   1.000  N 
  O1       1.0000 0.13187  0.07459  0.44982  Biso   1.000  O 
  O2       1.0000 0.85497  0.07278  0.55652  Biso   1.000  O 
  O3       1.0000 0.89997  0.99999  0.84540  Biso   1.000  O 
  O4       1.0000 0.85537  0.92596  0.21908  Biso   1.000  O 
  O5       1.0000 0.59052  0.50000  0.15861  Biso   1.000  O 
  O6       1.0000 0.13677  0.92756  0.78143  Biso   1.000  O 
  O7       1.0000 0.09050  0.99998  0.15873  Biso   1.000  O 
  O8       1.0000 0.63192  0.57459  0.44974  Biso   1.000  O 
  O9       1.0000 0.13179  0.92536  0.44984  Biso   1.000  O 
  O10      1.0000 0.35502  0.42723  0.55639  Biso   1.000  O 
  O11      1.0000 0.85494  0.92723  0.55647  Biso   1.000  O 
  O12      1.0000 0.85529  0.07400  0.21924  Biso   1.000  O 
  O13      1.0000 0.63189  0.42537  0.44970  Biso   1.000  O 
  O14      1.0000 0.35538  0.42596  0.21910  Biso   1.000  O 
  O15      1.0000 0.13676  0.07242  0.78150  Biso   1.000  O 
  O16      1.0000 0.35531  0.57399  0.21921  Biso   1.000  O 
  O17      1.0000 0.35503  0.57277  0.55644  Biso   1.000  O 
  O18      1.0000 0.40001  0.50000  0.84530  Biso   1.000  O 
  O19      1.0000 0.63675  0.57243  0.78148  Biso   1.000  O 
  O20      1.0000 0.63679  0.42759  0.78136  Biso   1.000  O 
