data_image0
_cell_length_a       10.4346
_cell_length_b       19.1406
_cell_length_c       6.72619
_cell_angle_alpha    90.0071
_cell_angle_beta     50.6409
_cell_angle_gamma    90.0028

_symmetry_space_group_name_H-M    "P 1"
_symmetry_int_tables_number       1

loop_
  _symmetry_equiv_pos_as_xyz
  'x, y, z'

loop_
  _atom_site_label
  _atom_site_occupancy
  _atom_site_fract_x
  _atom_site_fract_y
  _atom_site_fract_z
  _atom_site_thermal_displace_type
  _atom_site_B_iso_or_equiv
  _atom_site_type_symbol
  Al1      1.0000 0.99330  0.99999  0.00313  Biso   1.000  Al
  Al2      1.0000 0.49370  0.49999  0.00248  Biso   1.000  Al
  Al3      1.0000 0.99407  0.00000  0.50431  Biso   1.000  Al
  Al4      1.0000 0.49447  0.49998  0.50362  Biso   1.000  Al
  C1       1.0000 0.16232  0.89629  0.58796  Biso   1.000  C 
  C2       1.0000 0.25982  0.78680  0.67332  Biso   1.000  C 
  C3       1.0000 0.18869  0.21755  0.38993  Biso   1.000  C 
  C4       1.0000 0.66270  0.60367  0.58742  Biso   1.000  C 
  C5       1.0000 0.70715  0.67844  0.54792  Biso   1.000  C 
  C6       1.0000 0.20690  0.82153  0.54826  Biso   1.000  C 
  C7       1.0000 0.79036  0.21414  0.63255  Biso   1.000  C 
  C8       1.0000 0.72224  0.21155  0.34794  Biso   1.000  C 
  C9       1.0000 0.72225  0.78840  0.34792  Biso   1.000  C 
  C10      1.0000 0.68879  0.28240  0.38973  Biso   1.000  C 
  C11      1.0000 0.32360  0.60210  0.42041  Biso   1.000  C 
  C12      1.0000 0.27409  0.67729  0.47167  Biso   1.000  C 
  C13      1.0000 0.68878  0.71756  0.38978  Biso   1.000  C 
  C14      1.0000 0.16234  0.10370  0.58801  Biso   1.000  C 
  C15      1.0000 0.22236  0.28837  0.34770  Biso   1.000  C 
  C16      1.0000 0.29044  0.71412  0.63235  Biso   1.000  C 
  C17      1.0000 0.82324  0.10208  0.42103  Biso   1.000  C 
  C18      1.0000 0.20693  0.17846  0.54826  Biso   1.000  C 
  C19      1.0000 0.75996  0.28685  0.67313  Biso   1.000  C 
  C20      1.0000 0.75996  0.71317  0.67316  Biso   1.000  C 
  C21      1.0000 0.29046  0.28589  0.63232  Biso   1.000  C 
  C22      1.0000 0.70716  0.32154  0.54787  Biso   1.000  C 
  C23      1.0000 0.66270  0.39631  0.58735  Biso   1.000  C 
  C24      1.0000 0.25984  0.21321  0.67333  Biso   1.000  C 
  C25      1.0000 0.27412  0.32268  0.47161  Biso   1.000  C 
  C26      1.0000 0.82328  0.89790  0.42094  Biso   1.000  C 
  C27      1.0000 0.77392  0.82269  0.47199  Biso   1.000  C 
  C28      1.0000 0.79036  0.78586  0.63254  Biso   1.000  C 
  C29      1.0000 0.32365  0.39788  0.42029  Biso   1.000  C 
  C30      1.0000 0.22234  0.71158  0.34776  Biso   1.000  C 
  C31      1.0000 0.18866  0.78241  0.38995  Biso   1.000  C 
  C32      1.0000 0.77388  0.17729  0.47206  Biso   1.000  C 
  H1       1.0000 0.77298  0.00027  0.97069  Biso   1.000  H 
  H2       1.0000 0.27336  0.50012  0.97004  Biso   1.000  H 
  H3       1.0000 0.75076  0.37136  0.86863  Biso   1.000  H 
  H4       1.0000 0.33011  0.31377  0.72631  Biso   1.000  H 
  H5       1.0000 0.21606  0.00006  0.03664  Biso   1.000  H 
  H6       1.0000 0.82989  0.18629  0.72673  Biso   1.000  H 
  H7       1.0000 0.33605  0.79497  0.88945  Biso   1.000  H 
  H8       1.0000 0.14336  0.18991  0.30408  Biso   1.000  H 
  H9       1.0000 0.33601  0.20508  0.88953  Biso   1.000  H 
  H10      1.0000 0.71651  0.50005  0.03606  Biso   1.000  H 
  H11      1.0000 0.25027  0.12879  0.86946  Biso   1.000  H 
  H12      1.0000 0.82987  0.81374  0.72673  Biso   1.000  H 
  H13      1.0000 0.64359  0.31001  0.30365  Biso   1.000  H 
  H14      1.0000 0.64358  0.68992  0.30370  Biso   1.000  H 
  H15      1.0000 0.20731  0.68196  0.22551  Biso   1.000  H 
  H16      1.0000 0.20735  0.31798  0.22546  Biso   1.000  H 
  H17      1.0000 0.25032  0.87125  0.86932  Biso   1.000  H 
  H18      1.0000 0.14333  0.81004  0.30407  Biso   1.000  H 
  H19      1.0000 0.70711  0.18188  0.22590  Biso   1.000  H 
  H20      1.0000 0.33009  0.68625  0.72637  Biso   1.000  H 
  H21      1.0000 0.83630  0.29504  0.88907  Biso   1.000  H 
  H22      1.0000 0.70712  0.81805  0.22587  Biso   1.000  H 
  H23      1.0000 0.75071  0.62868  0.86876  Biso   1.000  H 
  H24      1.0000 0.83619  0.70502  0.88926  Biso   1.000  H 
  N1       1.0000 0.78382  0.32039  0.82489  Biso   1.000  N 
  N2       1.0000 0.78385  0.67964  0.82489  Biso   1.000  N 
  N3       1.0000 0.28357  0.17972  0.82530  Biso   1.000  N 
  N4       1.0000 0.28354  0.82031  0.82530  Biso   1.000  N 
  O1       1.0000 0.13983  0.07427  0.44164  Biso   1.000  O 
  O2       1.0000 0.84514  0.07224  0.56669  Biso   1.000  O 
  O3       1.0000 0.89294  1.00000  0.85296  Biso   1.000  O 
  O4       1.0000 0.84601  0.92648  0.22938  Biso   1.000  O 
  O5       1.0000 0.59655  0.49999  0.15226  Biso   1.000  O 
  O6       1.0000 0.14525  0.92813  0.77208  Biso   1.000  O 
  O7       1.0000 0.09611  0.00000  0.15290  Biso   1.000  O 
  O8       1.0000 0.64013  0.57426  0.44108  Biso   1.000  O 
  O9       1.0000 0.13975  0.92570  0.44166  Biso   1.000  O 
  O10      1.0000 0.34551  0.42776  0.56595  Biso   1.000  O 
  O11      1.0000 0.84512  0.92778  0.56663  Biso   1.000  O 
  O12      1.0000 0.84593  0.07347  0.22953  Biso   1.000  O 
  O13      1.0000 0.64012  0.42569  0.44104  Biso   1.000  O 
  O14      1.0000 0.34650  0.42644  0.22861  Biso   1.000  O 
  O15      1.0000 0.14521  0.07189  0.77221  Biso   1.000  O 
  O16      1.0000 0.34639  0.57352  0.22879  Biso   1.000  O 
  O17      1.0000 0.34550  0.57224  0.56603  Biso   1.000  O 
  O18      1.0000 0.39333  0.49999  0.85231  Biso   1.000  O 
  O19      1.0000 0.64571  0.57184  0.77145  Biso   1.000  O 
  O20      1.0000 0.64574  0.42818  0.77134  Biso   1.000  O 
