data_image0
_cell_length_a       14.8937
_cell_length_b       16.523
_cell_length_c       6.72085
_cell_angle_alpha    89.9997
_cell_angle_beta     64.5998
_cell_angle_gamma    89.9999

_symmetry_space_group_name_H-M    "P 1"
_symmetry_int_tables_number       1

loop_
  _symmetry_equiv_pos_as_xyz
  'x, y, z'

loop_
  _atom_site_label
  _atom_site_occupancy
  _atom_site_fract_x
  _atom_site_fract_y
  _atom_site_fract_z
  _atom_site_thermal_displace_type
  _atom_site_B_iso_or_equiv
  _atom_site_type_symbol
  Al1      1.0000 0.99831  0.00000  0.99631  Biso   1.000  Al
  Al2      1.0000 0.49831  0.50000  0.99631  Biso   1.000  Al
  Al3      1.0000 0.00169  1.00000  0.49512  Biso   1.000  Al
  Al4      1.0000 0.50169  0.50001  0.49510  Biso   1.000  Al
  C1       1.0000 0.11847  0.88769  0.63343  Biso   1.000  C 
  C2       1.0000 0.23984  0.79259  0.69266  Biso   1.000  C 
  C3       1.0000 0.19537  0.22907  0.38625  Biso   1.000  C 
  C4       1.0000 0.61848  0.61231  0.63343  Biso   1.000  C 
  C5       1.0000 0.68522  0.68355  0.57195  Biso   1.000  C 
  C6       1.0000 0.18522  0.81645  0.57198  Biso   1.000  C 
  C7       1.0000 0.80365  0.22490  0.61599  Biso   1.000  C 
  C8       1.0000 0.75856  0.20493  0.31266  Biso   1.000  C 
  C9       1.0000 0.75856  0.79507  0.31266  Biso   1.000  C 
  C10      1.0000 0.69536  0.27093  0.38626  Biso   1.000  C 
  C11      1.0000 0.38197  0.61069  0.35938  Biso   1.000  C 
  C12      1.0000 0.31353  0.68203  0.42991  Biso   1.000  C 
  C13      1.0000 0.69537  0.72907  0.38625  Biso   1.000  C 
  C14      1.0000 0.11848  0.11231  0.63343  Biso   1.000  C 
  C15      1.0000 0.25856  0.29507  0.31265  Biso   1.000  C 
  C16      1.0000 0.30365  0.72490  0.61599  Biso   1.000  C 
  C17      1.0000 0.88197  0.11069  0.35939  Biso   1.000  C 
  C18      1.0000 0.18522  0.18355  0.57196  Biso   1.000  C 
  C19      1.0000 0.73983  0.29259  0.69265  Biso   1.000  C 
  C20      1.0000 0.73983  0.70741  0.69265  Biso   1.000  C 
  C21      1.0000 0.30365  0.27510  0.61599  Biso   1.000  C 
  C22      1.0000 0.68522  0.31645  0.57196  Biso   1.000  C 
  C23      1.0000 0.61847  0.38769  0.63343  Biso   1.000  C 
  C24      1.0000 0.23983  0.20741  0.69265  Biso   1.000  C 
  C25      1.0000 0.31352  0.31797  0.42990  Biso   1.000  C 
  C26      1.0000 0.88197  0.88931  0.35940  Biso   1.000  C 
  C27      1.0000 0.81353  0.81797  0.42991  Biso   1.000  C 
  C28      1.0000 0.80365  0.77510  0.61599  Biso   1.000  C 
  C29      1.0000 0.38197  0.38931  0.35938  Biso   1.000  C 
  C30      1.0000 0.25856  0.70493  0.31267  Biso   1.000  C 
  C31      1.0000 0.19537  0.77093  0.38627  Biso   1.000  C 
  C32      1.0000 0.81352  0.18203  0.42991  Biso   1.000  C 
  H1       1.0000 0.86815  0.99999  0.86735  Biso   1.000  H 
  H2       1.0000 0.36815  0.50000  0.86733  Biso   1.000  H 
  H3       1.0000 0.67630  0.37152  0.94828  Biso   1.000  H 
  H4       1.0000 0.34617  0.29459  0.70522  Biso   1.000  H 
  H5       1.0000 0.13322  1.00000  0.11851  Biso   1.000  H 
  H6       1.0000 0.84617  0.20541  0.70521  Biso   1.000  H 
  H7       1.0000 0.26871  0.80979  0.96226  Biso   1.000  H 
  H8       1.0000 0.14978  0.21105  0.30313  Biso   1.000  H 
  H9       1.0000 0.26871  0.19021  0.96225  Biso   1.000  H 
  H10      1.0000 0.63322  0.50000  0.11849  Biso   1.000  H 
  H11      1.0000 0.17630  0.12848  0.94828  Biso   1.000  H 
  H12      1.0000 0.84617  0.79459  0.70522  Biso   1.000  H 
  H13      1.0000 0.64978  0.28895  0.30313  Biso   1.000  H 
  H14      1.0000 0.64979  0.71105  0.30313  Biso   1.000  H 
  H15      1.0000 0.26511  0.66973  0.17006  Biso   1.000  H 
  H16      1.0000 0.26511  0.33027  0.17005  Biso   1.000  H 
  H17      1.0000 0.17630  0.87153  0.94828  Biso   1.000  H 
  H18      1.0000 0.14978  0.78895  0.30314  Biso   1.000  H 
  H19      1.0000 0.76510  0.16973  0.17006  Biso   1.000  H 
  H20      1.0000 0.34617  0.70542  0.70522  Biso   1.000  H 
  H21      1.0000 0.76871  0.30979  0.96225  Biso   1.000  H 
  H22      1.0000 0.76511  0.83027  0.17005  Biso   1.000  H 
  H23      1.0000 0.67630  0.62847  0.94828  Biso   1.000  H 
  H24      1.0000 0.76871  0.69021  0.96225  Biso   1.000  H 
  N1       1.0000 0.73485  0.33353  0.87325  Biso   1.000  N 
  N2       1.0000 0.73485  0.66646  0.87325  Biso   1.000  N 
  N3       1.0000 0.23485  0.16647  0.87325  Biso   1.000  N 
  N4       1.0000 0.23485  0.83353  0.87326  Biso   1.000  N 
  O1       1.0000 0.09269  0.08358  0.48913  Biso   1.000  O 
  O2       1.0000 0.91070  0.08279  0.49914  Biso   1.000  O 
  O3       1.0000 0.94005  0.00000  0.80186  Biso   1.000  O 
  O4       1.0000 0.90636  0.91720  0.16601  Biso   1.000  O 
  O5       1.0000 0.56127  0.50000  0.18614  Biso   1.000  O 
  O6       1.0000 0.09104  0.91725  0.82772  Biso   1.000  O 
  O7       1.0000 0.06126  0.00000  0.18615  Biso   1.000  O 
  O8       1.0000 0.59270  0.58358  0.48911  Biso   1.000  O 
  O9       1.0000 0.09269  0.91642  0.48913  Biso   1.000  O 
  O10      1.0000 0.41070  0.41722  0.49914  Biso   1.000  O 
  O11      1.0000 0.91070  0.91721  0.49915  Biso   1.000  O 
  O12      1.0000 0.90636  0.08280  0.16600  Biso   1.000  O 
  O13      1.0000 0.59269  0.41642  0.48912  Biso   1.000  O 
  O14      1.0000 0.40636  0.41720  0.16600  Biso   1.000  O 
  O15      1.0000 0.09104  0.08275  0.82770  Biso   1.000  O 
  O16      1.0000 0.40636  0.58281  0.16600  Biso   1.000  O 
  O17      1.0000 0.41070  0.58279  0.49913  Biso   1.000  O 
  O18      1.0000 0.44005  0.50000  0.80185  Biso   1.000  O 
  O19      1.0000 0.59104  0.58275  0.82770  Biso   1.000  O 
  O20      1.0000 0.59104  0.41725  0.82770  Biso   1.000  O 
