data_image0
_cell_length_a       12.7108
_cell_length_b       18.054
_cell_length_c       6.70122
_cell_angle_alpha    90.0018
_cell_angle_beta     59.7551
_cell_angle_gamma    90.0014

_symmetry_space_group_name_H-M    "P 1"
_symmetry_int_tables_number       1

loop_
  _symmetry_equiv_pos_as_xyz
  'x, y, z'

loop_
  _atom_site_label
  _atom_site_occupancy
  _atom_site_fract_x
  _atom_site_fract_y
  _atom_site_fract_z
  _atom_site_thermal_displace_type
  _atom_site_B_iso_or_equiv
  _atom_site_type_symbol
  Al1      1.0000 0.99593  0.99999  0.99928  Biso   1.000  Al
  Al2      1.0000 0.49588  0.49999  0.99948  Biso   1.000  Al
  Al3      1.0000 0.99863  0.99999  0.49859  Biso   1.000  Al
  Al4      1.0000 0.49856  0.50000  0.49882  Biso   1.000  Al
  C1       1.0000 0.13246  0.89330  0.61980  Biso   1.000  C 
  C2       1.0000 0.25060  0.79053  0.68174  Biso   1.000  C 
  C3       1.0000 0.18839  0.22290  0.39232  Biso   1.000  C 
  C4       1.0000 0.63245  0.60670  0.61993  Biso   1.000  C 
  C5       1.0000 0.69208  0.68008  0.56453  Biso   1.000  C 
  C6       1.0000 0.19210  0.81992  0.56445  Biso   1.000  C 
  C7       1.0000 0.80448  0.21964  0.61522  Biso   1.000  C 
  C8       1.0000 0.74226  0.20786  0.32819  Biso   1.000  C 
  C9       1.0000 0.74225  0.79212  0.32820  Biso   1.000  C 
  C10      1.0000 0.68839  0.27709  0.39235  Biso   1.000  C 
  C11      1.0000 0.36243  0.60533  0.37885  Biso   1.000  C 
  C12      1.0000 0.30104  0.67917  0.44232  Biso   1.000  C 
  C13      1.0000 0.68838  0.72289  0.39236  Biso   1.000  C 
  C14      1.0000 0.13247  0.10669  0.61981  Biso   1.000  C 
  C15      1.0000 0.24225  0.29214  0.32822  Biso   1.000  C 
  C16      1.0000 0.30446  0.71965  0.61528  Biso   1.000  C 
  C17      1.0000 0.86245  0.10534  0.37871  Biso   1.000  C 
  C18      1.0000 0.19209  0.18007  0.56447  Biso   1.000  C 
  C19      1.0000 0.75061  0.29052  0.68173  Biso   1.000  C 
  C20      1.0000 0.75061  0.70949  0.68174  Biso   1.000  C 
  C21      1.0000 0.30446  0.28036  0.61526  Biso   1.000  C 
  C22      1.0000 0.69208  0.31991  0.56452  Biso   1.000  C 
  C23      1.0000 0.63243  0.39329  0.61992  Biso   1.000  C 
  C24      1.0000 0.25059  0.20948  0.68172  Biso   1.000  C 
  C25      1.0000 0.30105  0.32083  0.44229  Biso   1.000  C 
  C26      1.0000 0.86246  0.89465  0.37869  Biso   1.000  C 
  C27      1.0000 0.80106  0.82082  0.44222  Biso   1.000  C 
  C28      1.0000 0.80448  0.78036  0.61522  Biso   1.000  C 
  C29      1.0000 0.36242  0.39466  0.37882  Biso   1.000  C 
  C30      1.0000 0.24225  0.70785  0.32823  Biso   1.000  C 
  C31      1.0000 0.18839  0.77708  0.39232  Biso   1.000  C 
  C32      1.0000 0.80106  0.17917  0.44224  Biso   1.000  C 
  H1       1.0000 0.83528  0.00010  0.90149  Biso   1.000  H 
  H2       1.0000 0.33526  0.50004  0.90166  Biso   1.000  H 
  H3       1.0000 0.70265  0.37248  0.92163  Biso   1.000  H 
  H4       1.0000 0.34998  0.30408  0.70155  Biso   1.000  H 
  H5       1.0000 0.16065  0.00003  0.09284  Biso   1.000  H 
  H6       1.0000 0.85002  0.19591  0.70148  Biso   1.000  H 
  H7       1.0000 0.29301  0.80253  0.93792  Biso   1.000  H 
  H8       1.0000 0.13914  0.19980  0.31272  Biso   1.000  H 
  H9       1.0000 0.29302  0.19749  0.93792  Biso   1.000  H 
  H10      1.0000 0.66063  0.50002  0.09302  Biso   1.000  H 
  H11      1.0000 0.20263  0.12751  0.92163  Biso   1.000  H 
  H12      1.0000 0.85000  0.80410  0.70149  Biso   1.000  H 
  H13      1.0000 0.63911  0.30019  0.31278  Biso   1.000  H 
  H14      1.0000 0.63911  0.69979  0.31280  Biso   1.000  H 
  H15      1.0000 0.23828  0.67495  0.19597  Biso   1.000  H 
  H16      1.0000 0.23827  0.32503  0.19594  Biso   1.000  H 
  H17      1.0000 0.20262  0.87250  0.92163  Biso   1.000  H 
  H18      1.0000 0.13913  0.80017  0.31274  Biso   1.000  H 
  H19      1.0000 0.73828  0.17498  0.19590  Biso   1.000  H 
  H20      1.0000 0.34998  0.69593  0.70158  Biso   1.000  H 
  H21      1.0000 0.79305  0.30249  0.93789  Biso   1.000  H 
  H22      1.0000 0.73826  0.82501  0.19592  Biso   1.000  H 
  H23      1.0000 0.70263  0.62754  0.92167  Biso   1.000  H 
  H24      1.0000 0.79303  0.69753  0.93793  Biso   1.000  H 
  N1       1.0000 0.75929  0.32858  0.84844  Biso   1.000  N 
  N2       1.0000 0.75928  0.67144  0.84846  Biso   1.000  N 
  N3       1.0000 0.25928  0.17141  0.84842  Biso   1.000  N 
  N4       1.0000 0.25926  0.82860  0.84843  Biso   1.000  N 
  O1       1.0000 0.10791  0.07747  0.47441  Biso   1.000  O 
  O2       1.0000 0.88879  0.07630  0.52123  Biso   1.000  O 
  O3       1.0000 0.92339  1.00000  0.81927  Biso   1.000  O 
  O4       1.0000 0.88556  0.92293  0.18631  Biso   1.000  O 
  O5       1.0000 0.57250  0.49999  0.17625  Biso   1.000  O 
  O6       1.0000 0.10825  0.92382  0.81163  Biso   1.000  O 
  O7       1.0000 0.07253  1.00000  0.17610  Biso   1.000  O 
  O8       1.0000 0.60787  0.57747  0.47457  Biso   1.000  O 
  O9       1.0000 0.10788  0.92251  0.47441  Biso   1.000  O 
  O10      1.0000 0.38874  0.42370  0.52137  Biso   1.000  O 
  O11      1.0000 0.88879  0.92371  0.52121  Biso   1.000  O 
  O12      1.0000 0.88555  0.07706  0.18634  Biso   1.000  O 
  O13      1.0000 0.60783  0.42250  0.47458  Biso   1.000  O 
  O14      1.0000 0.38553  0.42293  0.18644  Biso   1.000  O 
  O15      1.0000 0.10826  0.07618  0.81164  Biso   1.000  O 
  O16      1.0000 0.38552  0.57705  0.18648  Biso   1.000  O 
  O17      1.0000 0.38876  0.57630  0.52139  Biso   1.000  O 
  O18      1.0000 0.42337  0.49999  0.81942  Biso   1.000  O 
  O19      1.0000 0.60823  0.57618  0.81177  Biso   1.000  O 
  O20      1.0000 0.60824  0.42382  0.81174  Biso   1.000  O 
