data_image0
_cell_length_a       12.6123
_cell_length_b       18.1115
_cell_length_c       6.70191
_cell_angle_alpha    90.0023
_cell_angle_beta     59.4876
_cell_angle_gamma    90.0014

_symmetry_space_group_name_H-M    "P 1"
_symmetry_int_tables_number       1

loop_
  _symmetry_equiv_pos_as_xyz
  'x, y, z'

loop_
  _atom_site_label
  _atom_site_occupancy
  _atom_site_fract_x
  _atom_site_fract_y
  _atom_site_fract_z
  _atom_site_thermal_displace_type
  _atom_site_B_iso_or_equiv
  _atom_site_type_symbol
  Al1      1.0000 0.99547  0.99999  0.99992  Biso   1.000  Al
  Al2      1.0000 0.49548  0.50000  0.00017  Biso   1.000  Al
  Al3      1.0000 0.99825  0.99999  0.49919  Biso   1.000  Al
  Al4      1.0000 0.49818  0.49999  0.49952  Biso   1.000  Al
  C1       1.0000 0.13323  0.89355  0.61906  Biso   1.000  C 
  C2       1.0000 0.25143  0.79057  0.68077  Biso   1.000  C 
  C3       1.0000 0.18811  0.22256  0.39258  Biso   1.000  C 
  C4       1.0000 0.63322  0.60645  0.61925  Biso   1.000  C 
  C5       1.0000 0.69262  0.67985  0.56394  Biso   1.000  C 
  C6       1.0000 0.19264  0.82014  0.56386  Biso   1.000  C 
  C7       1.0000 0.80466  0.21956  0.61491  Biso   1.000  C 
  C8       1.0000 0.74131  0.20810  0.32919  Biso   1.000  C 
  C9       1.0000 0.74131  0.79188  0.32918  Biso   1.000  C 
  C10      1.0000 0.68808  0.27744  0.39263  Biso   1.000  C 
  C11      1.0000 0.36113  0.60520  0.38028  Biso   1.000  C 
  C12      1.0000 0.30031  0.67915  0.44311  Biso   1.000  C 
  C13      1.0000 0.68808  0.72254  0.39264  Biso   1.000  C 
  C14      1.0000 0.13324  0.10645  0.61907  Biso   1.000  C 
  C15      1.0000 0.24132  0.29191  0.32922  Biso   1.000  C 
  C16      1.0000 0.30463  0.71957  0.61502  Biso   1.000  C 
  C17      1.0000 0.86115  0.10520  0.38005  Biso   1.000  C 
  C18      1.0000 0.19264  0.17985  0.56385  Biso   1.000  C 
  C19      1.0000 0.75145  0.29055  0.68074  Biso   1.000  C 
  C20      1.0000 0.75144  0.70946  0.68076  Biso   1.000  C 
  C21      1.0000 0.30462  0.28044  0.61500  Biso   1.000  C 
  C22      1.0000 0.69263  0.32014  0.56393  Biso   1.000  C 
  C23      1.0000 0.63320  0.39354  0.61924  Biso   1.000  C 
  C24      1.0000 0.25143  0.20944  0.68074  Biso   1.000  C 
  C25      1.0000 0.30030  0.32084  0.44308  Biso   1.000  C 
  C26      1.0000 0.86116  0.89479  0.38002  Biso   1.000  C 
  C27      1.0000 0.80032  0.82083  0.44297  Biso   1.000  C 
  C28      1.0000 0.80465  0.78045  0.61491  Biso   1.000  C 
  C29      1.0000 0.36112  0.39480  0.38023  Biso   1.000  C 
  C30      1.0000 0.24132  0.70807  0.32925  Biso   1.000  C 
  C31      1.0000 0.18810  0.77742  0.39260  Biso   1.000  C 
  C32      1.0000 0.80032  0.17916  0.44299  Biso   1.000  C 
  H1       1.0000 0.83311  0.00010  0.90373  Biso   1.000  H 
  H2       1.0000 0.33308  0.50004  0.90408  Biso   1.000  H 
  H3       1.0000 0.70451  0.37258  0.91964  Biso   1.000  H 
  H4       1.0000 0.35033  0.30435  0.70105  Biso   1.000  H 
  H5       1.0000 0.16199  0.00004  0.09159  Biso   1.000  H 
  H6       1.0000 0.85038  0.19564  0.70090  Biso   1.000  H 
  H7       1.0000 0.29473  0.80237  0.93598  Biso   1.000  H 
  H8       1.0000 0.13868  0.19930  0.31311  Biso   1.000  H 
  H9       1.0000 0.29474  0.19765  0.93597  Biso   1.000  H 
  H10      1.0000 0.66194  0.50003  0.09197  Biso   1.000  H 
  H11      1.0000 0.20446  0.12741  0.91963  Biso   1.000  H 
  H12      1.0000 0.85037  0.80437  0.70090  Biso   1.000  H 
  H13      1.0000 0.63864  0.30071  0.31320  Biso   1.000  H 
  H14      1.0000 0.63863  0.69927  0.31322  Biso   1.000  H 
  H15      1.0000 0.23669  0.67529  0.19766  Biso   1.000  H 
  H16      1.0000 0.23669  0.32468  0.19763  Biso   1.000  H 
  H17      1.0000 0.20445  0.87261  0.91966  Biso   1.000  H 
  H18      1.0000 0.13867  0.80067  0.31313  Biso   1.000  H 
  H19      1.0000 0.73667  0.17534  0.19758  Biso   1.000  H 
  H20      1.0000 0.35033  0.69566  0.70107  Biso   1.000  H 
  H21      1.0000 0.79479  0.30233  0.93592  Biso   1.000  H 
  H22      1.0000 0.73667  0.82464  0.19757  Biso   1.000  H 
  H23      1.0000 0.70448  0.62745  0.91970  Biso   1.000  H 
  H24      1.0000 0.79476  0.69770  0.93597  Biso   1.000  H 
  N1       1.0000 0.76105  0.32850  0.84644  Biso   1.000  N 
  N2       1.0000 0.76103  0.67152  0.84649  Biso   1.000  N 
  N3       1.0000 0.26102  0.17148  0.84643  Biso   1.000  N 
  N4       1.0000 0.26100  0.82853  0.84647  Biso   1.000  N 
  O1       1.0000 0.10855  0.07724  0.47385  Biso   1.000  O 
  O2       1.0000 0.88730  0.07606  0.52269  Biso   1.000  O 
  O3       1.0000 0.92214  1.00000  0.82064  Biso   1.000  O 
  O4       1.0000 0.88414  0.92304  0.18774  Biso   1.000  O 
  O5       1.0000 0.57288  0.49999  0.17612  Biso   1.000  O 
  O6       1.0000 0.10912  0.92407  0.81078  Biso   1.000  O 
  O7       1.0000 0.07293  1.00000  0.17584  Biso   1.000  O 
  O8       1.0000 0.60849  0.57723  0.47410  Biso   1.000  O 
  O9       1.0000 0.10854  0.92274  0.47385  Biso   1.000  O 
  O10      1.0000 0.38721  0.42394  0.52295  Biso   1.000  O 
  O11      1.0000 0.88730  0.92393  0.52267  Biso   1.000  O 
  O12      1.0000 0.88413  0.07693  0.18778  Biso   1.000  O 
  O13      1.0000 0.60844  0.42273  0.47412  Biso   1.000  O 
  O14      1.0000 0.38414  0.42305  0.18792  Biso   1.000  O 
  O15      1.0000 0.10913  0.07594  0.81080  Biso   1.000  O 
  O16      1.0000 0.38412  0.57692  0.18800  Biso   1.000  O 
  O17      1.0000 0.38724  0.57607  0.52297  Biso   1.000  O 
  O18      1.0000 0.42211  0.50000  0.82089  Biso   1.000  O 
  O19      1.0000 0.60912  0.57594  0.81099  Biso   1.000  O 
  O20      1.0000 0.60913  0.42406  0.81095  Biso   1.000  O 
