data_image0
_cell_length_a       12.5125
_cell_length_b       18.1681
_cell_length_c       6.70215
_cell_angle_alpha    90.0023
_cell_angle_beta     59.2244
_cell_angle_gamma    90.0012

_symmetry_space_group_name_H-M    "P 1"
_symmetry_int_tables_number       1

loop_
  _symmetry_equiv_pos_as_xyz
  'x, y, z'

loop_
  _atom_site_label
  _atom_site_occupancy
  _atom_site_fract_x
  _atom_site_fract_y
  _atom_site_fract_z
  _atom_site_thermal_displace_type
  _atom_site_B_iso_or_equiv
  _atom_site_type_symbol
  Al1      1.0000 0.99508  1.00000  0.00051  Biso   1.000  Al
  Al2      1.0000 0.49510  0.50000  0.00063  Biso   1.000  Al
  Al3      1.0000 0.99767  0.99999  0.49990  Biso   1.000  Al
  Al4      1.0000 0.49767  0.49999  0.50000  Biso   1.000  Al
  C1       1.0000 0.13395  0.89378  0.61850  Biso   1.000  C 
  C2       1.0000 0.25231  0.79057  0.67980  Biso   1.000  C 
  C3       1.0000 0.18778  0.22221  0.39291  Biso   1.000  C 
  C4       1.0000 0.63396  0.60622  0.61859  Biso   1.000  C 
  C5       1.0000 0.69316  0.67964  0.56339  Biso   1.000  C 
  C6       1.0000 0.19316  0.82036  0.56333  Biso   1.000  C 
  C7       1.0000 0.80485  0.21945  0.61467  Biso   1.000  C 
  C8       1.0000 0.74033  0.20833  0.33019  Biso   1.000  C 
  C9       1.0000 0.74033  0.79166  0.33017  Biso   1.000  C 
  C10      1.0000 0.68774  0.27778  0.39297  Biso   1.000  C 
  C11      1.0000 0.35983  0.60508  0.38151  Biso   1.000  C 
  C12      1.0000 0.29956  0.67915  0.44384  Biso   1.000  C 
  C13      1.0000 0.68774  0.72220  0.39298  Biso   1.000  C 
  C14      1.0000 0.13397  0.10621  0.61849  Biso   1.000  C 
  C15      1.0000 0.24035  0.29167  0.33020  Biso   1.000  C 
  C16      1.0000 0.30483  0.71947  0.61476  Biso   1.000  C 
  C17      1.0000 0.85983  0.10508  0.38135  Biso   1.000  C 
  C18      1.0000 0.19319  0.17963  0.56329  Biso   1.000  C 
  C19      1.0000 0.75233  0.29055  0.67978  Biso   1.000  C 
  C20      1.0000 0.75232  0.70945  0.67979  Biso   1.000  C 
  C21      1.0000 0.30483  0.28054  0.61474  Biso   1.000  C 
  C22      1.0000 0.69316  0.32035  0.56337  Biso   1.000  C 
  C23      1.0000 0.63394  0.39377  0.61859  Biso   1.000  C 
  C24      1.0000 0.25233  0.20943  0.67976  Biso   1.000  C 
  C25      1.0000 0.29956  0.32084  0.44381  Biso   1.000  C 
  C26      1.0000 0.85983  0.89491  0.38132  Biso   1.000  C 
  C27      1.0000 0.79957  0.82084  0.44370  Biso   1.000  C 
  C28      1.0000 0.80484  0.78055  0.61466  Biso   1.000  C 
  C29      1.0000 0.35982  0.39491  0.38147  Biso   1.000  C 
  C30      1.0000 0.24034  0.70831  0.33025  Biso   1.000  C 
  C31      1.0000 0.18776  0.77777  0.39295  Biso   1.000  C 
  C32      1.0000 0.79957  0.17915  0.44373  Biso   1.000  C 
  H1       1.0000 0.83093  0.00014  0.90612  Biso   1.000  H 
  H2       1.0000 0.33095  0.50005  0.90628  Biso   1.000  H 
  H3       1.0000 0.70641  0.37265  0.91758  Biso   1.000  H 
  H4       1.0000 0.35075  0.30459  0.70054  Biso   1.000  H 
  H5       1.0000 0.16333  0.00005  0.09073  Biso   1.000  H 
  H6       1.0000 0.85080  0.19539  0.70041  Biso   1.000  H 
  H7       1.0000 0.29659  0.80218  0.93389  Biso   1.000  H 
  H8       1.0000 0.13815  0.19877  0.31363  Biso   1.000  H 
  H9       1.0000 0.29660  0.19784  0.93388  Biso   1.000  H 
  H10      1.0000 0.66334  0.50003  0.09087  Biso   1.000  H 
  H11      1.0000 0.20638  0.12733  0.91753  Biso   1.000  H 
  H12      1.0000 0.85078  0.80462  0.70040  Biso   1.000  H 
  H13      1.0000 0.63808  0.30121  0.31376  Biso   1.000  H 
  H14      1.0000 0.63809  0.69876  0.31376  Biso   1.000  H 
  H15      1.0000 0.23499  0.67564  0.19941  Biso   1.000  H 
  H16      1.0000 0.23500  0.32433  0.19936  Biso   1.000  H 
  H17      1.0000 0.20636  0.87269  0.91756  Biso   1.000  H 
  H18      1.0000 0.13812  0.80120  0.31368  Biso   1.000  H 
  H19      1.0000 0.73498  0.17567  0.19932  Biso   1.000  H 
  H20      1.0000 0.35076  0.69542  0.70055  Biso   1.000  H 
  H21      1.0000 0.79665  0.30213  0.93382  Biso   1.000  H 
  H22      1.0000 0.73498  0.82430  0.19930  Biso   1.000  H 
  H23      1.0000 0.70638  0.62737  0.91765  Biso   1.000  H 
  H24      1.0000 0.79662  0.69790  0.93389  Biso   1.000  H 
  N1       1.0000 0.76283  0.32839  0.84449  Biso   1.000  N 
  N2       1.0000 0.76281  0.67163  0.84452  Biso   1.000  N 
  N3       1.0000 0.26282  0.17158  0.84445  Biso   1.000  N 
  N4       1.0000 0.26280  0.82843  0.84449  Biso   1.000  N 
  O1       1.0000 0.10914  0.07703  0.47345  Biso   1.000  O 
  O2       1.0000 0.88567  0.07585  0.52428  Biso   1.000  O 
  O3       1.0000 0.92092  1.00000  0.82197  Biso   1.000  O 
  O4       1.0000 0.88275  0.92319  0.18913  Biso   1.000  O 
  O5       1.0000 0.57333  0.50000  0.17582  Biso   1.000  O 
  O6       1.0000 0.11003  0.92429  0.81008  Biso   1.000  O 
  O7       1.0000 0.07331  1.00000  0.17572  Biso   1.000  O 
  O8       1.0000 0.60914  0.57702  0.47358  Biso   1.000  O 
  O9       1.0000 0.10911  0.92295  0.47347  Biso   1.000  O 
  O10      1.0000 0.38564  0.42414  0.52442  Biso   1.000  O 
  O11      1.0000 0.88567  0.92415  0.52424  Biso   1.000  O 
  O12      1.0000 0.88273  0.07680  0.18917  Biso   1.000  O 
  O13      1.0000 0.60909  0.42295  0.47360  Biso   1.000  O 
  O14      1.0000 0.38275  0.42320  0.18926  Biso   1.000  O 
  O15      1.0000 0.11004  0.07572  0.81009  Biso   1.000  O 
  O16      1.0000 0.38273  0.57679  0.18932  Biso   1.000  O 
  O17      1.0000 0.38567  0.57587  0.52443  Biso   1.000  O 
  O18      1.0000 0.42094  0.50000  0.82208  Biso   1.000  O 
  O19      1.0000 0.61004  0.57572  0.81019  Biso   1.000  O 
  O20      1.0000 0.61005  0.42428  0.81017  Biso   1.000  O 
