data_image0
_cell_length_a       14.2222
_cell_length_b       17.0599
_cell_length_c       6.71327
_cell_angle_alpha    90.0008
_cell_angle_beta     63.2013
_cell_angle_gamma    90.0007

_symmetry_space_group_name_H-M    "P 1"
_symmetry_int_tables_number       1

loop_
  _symmetry_equiv_pos_as_xyz
  'x, y, z'

loop_
  _atom_site_label
  _atom_site_occupancy
  _atom_site_fract_x
  _atom_site_fract_y
  _atom_site_fract_z
  _atom_site_thermal_displace_type
  _atom_site_B_iso_or_equiv
  _atom_site_type_symbol
  Al1      1.0000 0.99801  1.00000  0.99691  Biso   1.000  Al
  Al2      1.0000 0.49800  0.50000  0.99688  Biso   1.000  Al
  Al3      1.0000 0.00103  0.99999  0.49604  Biso   1.000  Al
  Al4      1.0000 0.50103  0.50000  0.49599  Biso   1.000  Al
  C1       1.0000 0.12229  0.88976  0.62931  Biso   1.000  C 
  C2       1.0000 0.24263  0.79195  0.68965  Biso   1.000  C 
  C3       1.0000 0.19323  0.22731  0.38816  Biso   1.000  C 
  C4       1.0000 0.62230  0.61024  0.62930  Biso   1.000  C 
  C5       1.0000 0.68696  0.68238  0.56979  Biso   1.000  C 
  C6       1.0000 0.18696  0.81762  0.56979  Biso   1.000  C 
  C7       1.0000 0.80389  0.22302  0.61581  Biso   1.000  C 
  C8       1.0000 0.75389  0.20535  0.31738  Biso   1.000  C 
  C9       1.0000 0.75388  0.79464  0.31739  Biso   1.000  C 
  C10      1.0000 0.69324  0.27269  0.38812  Biso   1.000  C 
  C11      1.0000 0.37692  0.60852  0.36469  Biso   1.000  C 
  C12      1.0000 0.31009  0.68066  0.43357  Biso   1.000  C 
  C13      1.0000 0.69324  0.72731  0.38814  Biso   1.000  C 
  C14      1.0000 0.12229  0.11025  0.62932  Biso   1.000  C 
  C15      1.0000 0.25388  0.29464  0.31739  Biso   1.000  C 
  C16      1.0000 0.30389  0.72301  0.61580  Biso   1.000  C 
  C17      1.0000 0.87692  0.10852  0.36472  Biso   1.000  C 
  C18      1.0000 0.18695  0.18238  0.56981  Biso   1.000  C 
  C19      1.0000 0.74263  0.29195  0.68965  Biso   1.000  C 
  C20      1.0000 0.74263  0.70805  0.68966  Biso   1.000  C 
  C21      1.0000 0.30389  0.27699  0.61579  Biso   1.000  C 
  C22      1.0000 0.68696  0.31762  0.56979  Biso   1.000  C 
  C23      1.0000 0.62229  0.38976  0.62929  Biso   1.000  C 
  C24      1.0000 0.24263  0.20805  0.68965  Biso   1.000  C 
  C25      1.0000 0.31008  0.31935  0.43357  Biso   1.000  C 
  C26      1.0000 0.87692  0.89147  0.36472  Biso   1.000  C 
  C27      1.0000 0.81009  0.81934  0.43357  Biso   1.000  C 
  C28      1.0000 0.80389  0.77699  0.61581  Biso   1.000  C 
  C29      1.0000 0.37692  0.39148  0.36468  Biso   1.000  C 
  C30      1.0000 0.25388  0.70535  0.31739  Biso   1.000  C 
  C31      1.0000 0.19324  0.77269  0.38814  Biso   1.000  C 
  C32      1.0000 0.81009  0.18066  0.43357  Biso   1.000  C 
  H1       1.0000 0.85965  0.00002  0.87692  Biso   1.000  H 
  H2       1.0000 0.35965  0.50000  0.87687  Biso   1.000  H 
  H3       1.0000 0.68308  0.37227  0.94104  Biso   1.000  H 
  H4       1.0000 0.34739  0.29780  0.70403  Biso   1.000  H 
  H5       1.0000 0.14077  0.00001  0.11134  Biso   1.000  H 
  H6       1.0000 0.84739  0.20221  0.70405  Biso   1.000  H 
  H7       1.0000 0.27497  0.80752  0.95586  Biso   1.000  H 
  H8       1.0000 0.14668  0.20757  0.30587  Biso   1.000  H 
  H9       1.0000 0.27497  0.19249  0.95586  Biso   1.000  H 
  H10      1.0000 0.64077  0.50000  0.11129  Biso   1.000  H 
  H11      1.0000 0.18309  0.12774  0.94107  Biso   1.000  H 
  H12      1.0000 0.84739  0.79779  0.70405  Biso   1.000  H 
  H13      1.0000 0.64669  0.29242  0.30583  Biso   1.000  H 
  H14      1.0000 0.64668  0.70757  0.30585  Biso   1.000  H 
  H15      1.0000 0.25753  0.67068  0.17786  Biso   1.000  H 
  H16      1.0000 0.25752  0.32931  0.17786  Biso   1.000  H 
  H17      1.0000 0.18309  0.87226  0.94106  Biso   1.000  H 
  H18      1.0000 0.14668  0.79243  0.30587  Biso   1.000  H 
  H19      1.0000 0.75753  0.17068  0.17786  Biso   1.000  H 
  H20      1.0000 0.34740  0.70221  0.70403  Biso   1.000  H 
  H21      1.0000 0.77497  0.30753  0.95585  Biso   1.000  H 
  H22      1.0000 0.75753  0.82932  0.17786  Biso   1.000  H 
  H23      1.0000 0.68308  0.62773  0.94106  Biso   1.000  H 
  H24      1.0000 0.77496  0.69248  0.95587  Biso   1.000  H 
  N1       1.0000 0.74128  0.33211  0.86648  Biso   1.000  N 
  N2       1.0000 0.74127  0.66790  0.86650  Biso   1.000  N 
  N3       1.0000 0.24129  0.16791  0.86648  Biso   1.000  N 
  N4       1.0000 0.24129  0.83210  0.86647  Biso   1.000  N 
  O1       1.0000 0.09682  0.08139  0.48475  Biso   1.000  O 
  O2       1.0000 0.90505  0.08029  0.50521  Biso   1.000  O 
  O3       1.0000 0.93586  0.00000  0.80658  Biso   1.000  O 
  O4       1.0000 0.90117  0.91940  0.17132  Biso   1.000  O 
  O5       1.0000 0.56454  0.50000  0.18317  Biso   1.000  O 
  O6       1.0000 0.09587  0.91981  0.82287  Biso   1.000  O 
  O7       1.0000 0.06453  0.00000  0.18320  Biso   1.000  O 
  O8       1.0000 0.59683  0.58140  0.48472  Biso   1.000  O 
  O9       1.0000 0.09681  0.91860  0.48475  Biso   1.000  O 
  O10      1.0000 0.40505  0.41971  0.50517  Biso   1.000  O 
  O11      1.0000 0.90505  0.91971  0.50521  Biso   1.000  O 
  O12      1.0000 0.90117  0.08059  0.17133  Biso   1.000  O 
  O13      1.0000 0.59682  0.41860  0.48472  Biso   1.000  O 
  O14      1.0000 0.40116  0.41941  0.17129  Biso   1.000  O 
  O15      1.0000 0.09587  0.08020  0.82288  Biso   1.000  O 
  O16      1.0000 0.40115  0.58060  0.17130  Biso   1.000  O 
  O17      1.0000 0.40506  0.58029  0.50517  Biso   1.000  O 
  O18      1.0000 0.43585  0.50000  0.80655  Biso   1.000  O 
  O19      1.0000 0.59586  0.58019  0.82285  Biso   1.000  O 
  O20      1.0000 0.59586  0.41981  0.82284  Biso   1.000  O 
