data_image0
_cell_length_a       14.4755
_cell_length_b       16.8566
_cell_length_c       6.71444
_cell_angle_alpha    89.9998
_cell_angle_beta     63.8217
_cell_angle_gamma    90

_symmetry_space_group_name_H-M    "P 1"
_symmetry_int_tables_number       1

loop_
  _symmetry_equiv_pos_as_xyz
  'x, y, z'

loop_
  _atom_site_label
  _atom_site_occupancy
  _atom_site_fract_x
  _atom_site_fract_y
  _atom_site_fract_z
  _atom_site_thermal_displace_type
  _atom_site_B_iso_or_equiv
  _atom_site_type_symbol
  Al1      1.0000 0.99788  0.00000  0.99700  Biso   1.000  Al
  Al2      1.0000 0.49789  0.50000  0.99697  Biso   1.000  Al
  Al3      1.0000 0.00111  0.99999  0.49593  Biso   1.000  Al
  Al4      1.0000 0.50112  0.50000  0.49589  Biso   1.000  Al
  C1       1.0000 0.12064  0.88910  0.63133  Biso   1.000  C 
  C2       1.0000 0.24178  0.79238  0.69061  Biso   1.000  C 
  C3       1.0000 0.19409  0.22771  0.38728  Biso   1.000  C 
  C4       1.0000 0.62065  0.61090  0.63131  Biso   1.000  C 
  C5       1.0000 0.68638  0.68259  0.57059  Biso   1.000  C 
  C6       1.0000 0.18638  0.81741  0.57059  Biso   1.000  C 
  C7       1.0000 0.80397  0.22384  0.61562  Biso   1.000  C 
  C8       1.0000 0.75569  0.20539  0.31532  Biso   1.000  C 
  C9       1.0000 0.75569  0.79461  0.31532  Biso   1.000  C 
  C10      1.0000 0.69408  0.27229  0.38729  Biso   1.000  C 
  C11      1.0000 0.37881  0.60937  0.36254  Biso   1.000  C 
  C12      1.0000 0.31147  0.68130  0.43190  Biso   1.000  C 
  C13      1.0000 0.69409  0.72771  0.38728  Biso   1.000  C 
  C14      1.0000 0.12064  0.11090  0.63132  Biso   1.000  C 
  C15      1.0000 0.25569  0.29461  0.31532  Biso   1.000  C 
  C16      1.0000 0.30397  0.72384  0.61562  Biso   1.000  C 
  C17      1.0000 0.87880  0.10936  0.36255  Biso   1.000  C 
  C18      1.0000 0.18637  0.18259  0.57059  Biso   1.000  C 
  C19      1.0000 0.74177  0.29237  0.69061  Biso   1.000  C 
  C20      1.0000 0.74178  0.70762  0.69061  Biso   1.000  C 
  C21      1.0000 0.30397  0.27616  0.61562  Biso   1.000  C 
  C22      1.0000 0.68637  0.31741  0.57059  Biso   1.000  C 
  C23      1.0000 0.62065  0.38910  0.63131  Biso   1.000  C 
  C24      1.0000 0.24177  0.20763  0.69061  Biso   1.000  C 
  C25      1.0000 0.31147  0.31870  0.43190  Biso   1.000  C 
  C26      1.0000 0.87880  0.89064  0.36256  Biso   1.000  C 
  C27      1.0000 0.81146  0.81870  0.43190  Biso   1.000  C 
  C28      1.0000 0.80397  0.77616  0.61562  Biso   1.000  C 
  C29      1.0000 0.37881  0.39064  0.36254  Biso   1.000  C 
  C30      1.0000 0.25570  0.70540  0.31532  Biso   1.000  C 
  C31      1.0000 0.19409  0.77229  0.38728  Biso   1.000  C 
  C32      1.0000 0.81146  0.18129  0.43191  Biso   1.000  C 
  H1       1.0000 0.86276  0.00004  0.87314  Biso   1.000  H 
  H2       1.0000 0.36277  0.49999  0.87311  Biso   1.000  H 
  H3       1.0000 0.68087  0.37222  0.94370  Biso   1.000  H 
  H4       1.0000 0.34714  0.29654  0.70422  Biso   1.000  H 
  H5       1.0000 0.13752  0.00000  0.11482  Biso   1.000  H 
  H6       1.0000 0.84714  0.20345  0.70420  Biso   1.000  H 
  H7       1.0000 0.27294  0.80848  0.95806  Biso   1.000  H 
  H8       1.0000 0.14785  0.20856  0.30471  Biso   1.000  H 
  H9       1.0000 0.27294  0.19152  0.95805  Biso   1.000  H 
  H10      1.0000 0.63752  0.50000  0.11480  Biso   1.000  H 
  H11      1.0000 0.18087  0.12778  0.94371  Biso   1.000  H 
  H12      1.0000 0.84714  0.79654  0.70421  Biso   1.000  H 
  H13      1.0000 0.64784  0.29144  0.30473  Biso   1.000  H 
  H14      1.0000 0.64785  0.70856  0.30472  Biso   1.000  H 
  H15      1.0000 0.26031  0.67050  0.17473  Biso   1.000  H 
  H16      1.0000 0.26030  0.32950  0.17473  Biso   1.000  H 
  H17      1.0000 0.18087  0.87222  0.94371  Biso   1.000  H 
  H18      1.0000 0.14785  0.79144  0.30471  Biso   1.000  H 
  H19      1.0000 0.76029  0.17050  0.17474  Biso   1.000  H 
  H20      1.0000 0.34714  0.70346  0.70421  Biso   1.000  H 
  H21      1.0000 0.77294  0.30848  0.95806  Biso   1.000  H 
  H22      1.0000 0.76029  0.82950  0.17473  Biso   1.000  H 
  H23      1.0000 0.68087  0.62778  0.94371  Biso   1.000  H 
  H24      1.0000 0.77294  0.69152  0.95806  Biso   1.000  H 
  N1       1.0000 0.73922  0.33286  0.86877  Biso   1.000  N 
  N2       1.0000 0.73922  0.66714  0.86877  Biso   1.000  N 
  N3       1.0000 0.23922  0.16714  0.86877  Biso   1.000  N 
  N4       1.0000 0.23922  0.83286  0.86876  Biso   1.000  N 
  O1       1.0000 0.09478  0.08219  0.48705  Biso   1.000  O 
  O2       1.0000 0.90709  0.08118  0.50292  Biso   1.000  O 
  O3       1.0000 0.93723  0.00000  0.80504  Biso   1.000  O 
  O4       1.0000 0.90304  0.91855  0.16920  Biso   1.000  O 
  O5       1.0000 0.56301  0.50000  0.18484  Biso   1.000  O 
  O6       1.0000 0.09386  0.91892  0.82520  Biso   1.000  O 
  O7       1.0000 0.06301  1.00000  0.18486  Biso   1.000  O 
  O8       1.0000 0.59480  0.58219  0.48703  Biso   1.000  O 
  O9       1.0000 0.09478  0.91780  0.48707  Biso   1.000  O 
  O10      1.0000 0.40710  0.41882  0.50290  Biso   1.000  O 
  O11      1.0000 0.90709  0.91882  0.50293  Biso   1.000  O 
  O12      1.0000 0.90303  0.08144  0.16920  Biso   1.000  O 
  O13      1.0000 0.59479  0.41780  0.48703  Biso   1.000  O 
  O14      1.0000 0.40304  0.41855  0.16917  Biso   1.000  O 
  O15      1.0000 0.09386  0.08108  0.82519  Biso   1.000  O 
  O16      1.0000 0.40303  0.58145  0.16918  Biso   1.000  O 
  O17      1.0000 0.40710  0.58118  0.50289  Biso   1.000  O 
  O18      1.0000 0.43724  0.50000  0.80501  Biso   1.000  O 
  O19      1.0000 0.59385  0.58108  0.82518  Biso   1.000  O 
  O20      1.0000 0.59386  0.41893  0.82517  Biso   1.000  O 
