data_image0
_cell_length_a       12.8238
_cell_length_b       17.985
_cell_length_c       6.70365
_cell_angle_alpha    90.0015
_cell_angle_beta     60.0686
_cell_angle_gamma    90.0011

_symmetry_space_group_name_H-M    "P 1"
_symmetry_int_tables_number       1

loop_
  _symmetry_equiv_pos_as_xyz
  'x, y, z'

loop_
  _atom_site_label
  _atom_site_occupancy
  _atom_site_fract_x
  _atom_site_fract_y
  _atom_site_fract_z
  _atom_site_thermal_displace_type
  _atom_site_B_iso_or_equiv
  _atom_site_type_symbol
  Al1      1.0000 0.99620  0.99999  0.99887  Biso   1.000  Al
  Al2      1.0000 0.49621  0.49999  0.99897  Biso   1.000  Al
  Al3      1.0000 0.99906  0.99999  0.49820  Biso   1.000  Al
  Al4      1.0000 0.49901  0.50000  0.49835  Biso   1.000  Al
  C1       1.0000 0.13161  0.89305  0.62070  Biso   1.000  C 
  C2       1.0000 0.24974  0.79049  0.68270  Biso   1.000  C 
  C3       1.0000 0.18875  0.22326  0.39205  Biso   1.000  C 
  C4       1.0000 0.63160  0.60695  0.62077  Biso   1.000  C 
  C5       1.0000 0.69156  0.68030  0.56513  Biso   1.000  C 
  C6       1.0000 0.19158  0.81970  0.56508  Biso   1.000  C 
  C7       1.0000 0.80434  0.21974  0.61535  Biso   1.000  C 
  C8       1.0000 0.74330  0.20765  0.32717  Biso   1.000  C 
  C9       1.0000 0.74329  0.79234  0.32718  Biso   1.000  C 
  C10      1.0000 0.68875  0.27674  0.39206  Biso   1.000  C 
  C11      1.0000 0.36385  0.60549  0.37725  Biso   1.000  C 
  C12      1.0000 0.30188  0.67919  0.44140  Biso   1.000  C 
  C13      1.0000 0.68874  0.72325  0.39207  Biso   1.000  C 
  C14      1.0000 0.13161  0.10695  0.62071  Biso   1.000  C 
  C15      1.0000 0.24329  0.29235  0.32720  Biso   1.000  C 
  C16      1.0000 0.30432  0.71974  0.61541  Biso   1.000  C 
  C17      1.0000 0.86387  0.10549  0.37716  Biso   1.000  C 
  C18      1.0000 0.19157  0.18030  0.56509  Biso   1.000  C 
  C19      1.0000 0.74975  0.29049  0.68268  Biso   1.000  C 
  C20      1.0000 0.74974  0.70952  0.68270  Biso   1.000  C 
  C21      1.0000 0.30432  0.28026  0.61539  Biso   1.000  C 
  C22      1.0000 0.69157  0.31969  0.56512  Biso   1.000  C 
  C23      1.0000 0.63160  0.39304  0.62075  Biso   1.000  C 
  C24      1.0000 0.24974  0.20951  0.68270  Biso   1.000  C 
  C25      1.0000 0.30188  0.32081  0.44140  Biso   1.000  C 
  C26      1.0000 0.86387  0.89450  0.37715  Biso   1.000  C 
  C27      1.0000 0.80190  0.82081  0.44135  Biso   1.000  C 
  C28      1.0000 0.80433  0.78027  0.61536  Biso   1.000  C 
  C29      1.0000 0.36385  0.39451  0.37723  Biso   1.000  C 
  C30      1.0000 0.24329  0.70764  0.32721  Biso   1.000  C 
  C31      1.0000 0.18875  0.77673  0.39205  Biso   1.000  C 
  C32      1.0000 0.80191  0.17919  0.44134  Biso   1.000  C 
  H1       1.0000 0.83753  0.00008  0.89900  Biso   1.000  H 
  H2       1.0000 0.33753  0.50004  0.89912  Biso   1.000  H 
  H3       1.0000 0.70073  0.37234  0.92372  Biso   1.000  H 
  H4       1.0000 0.34965  0.30387  0.70185  Biso   1.000  H 
  H5       1.0000 0.15910  0.00002  0.09412  Biso   1.000  H 
  H6       1.0000 0.84968  0.19614  0.70179  Biso   1.000  H 
  H7       1.0000 0.29118  0.80268  0.93998  Biso   1.000  H 
  H8       1.0000 0.13967  0.20036  0.31232  Biso   1.000  H 
  H9       1.0000 0.29118  0.19734  0.93998  Biso   1.000  H 
  H10      1.0000 0.65907  0.50002  0.09429  Biso   1.000  H 
  H11      1.0000 0.20070  0.12766  0.92375  Biso   1.000  H 
  H12      1.0000 0.84966  0.80387  0.70182  Biso   1.000  H 
  H13      1.0000 0.63966  0.29963  0.31233  Biso   1.000  H 
  H14      1.0000 0.63966  0.70036  0.31235  Biso   1.000  H 
  H15      1.0000 0.24005  0.67463  0.19423  Biso   1.000  H 
  H16      1.0000 0.24003  0.32536  0.19422  Biso   1.000  H 
  H17      1.0000 0.20070  0.87235  0.92374  Biso   1.000  H 
  H18      1.0000 0.13967  0.79962  0.31231  Biso   1.000  H 
  H19      1.0000 0.74005  0.17464  0.19419  Biso   1.000  H 
  H20      1.0000 0.34965  0.69614  0.70185  Biso   1.000  H 
  H21      1.0000 0.79120  0.30266  0.93997  Biso   1.000  H 
  H22      1.0000 0.74003  0.82534  0.19420  Biso   1.000  H 
  H23      1.0000 0.70070  0.62768  0.92375  Biso   1.000  H 
  H24      1.0000 0.79119  0.69735  0.93998  Biso   1.000  H 
  N1       1.0000 0.75741  0.32863  0.85053  Biso   1.000  N 
  N2       1.0000 0.75739  0.67139  0.85056  Biso   1.000  N 
  N3       1.0000 0.25739  0.17137  0.85055  Biso   1.000  N 
  N4       1.0000 0.25739  0.82864  0.85054  Biso   1.000  N 
  O1       1.0000 0.10700  0.07774  0.47536  Biso   1.000  O 
  O2       1.0000 0.89036  0.07646  0.51944  Biso   1.000  O 
  O3       1.0000 0.92459  0.00000  0.81790  Biso   1.000  O 
  O4       1.0000 0.88711  0.92269  0.18464  Biso   1.000  O 
  O5       1.0000 0.57200  0.50000  0.17668  Biso   1.000  O 
  O6       1.0000 0.10730  0.92357  0.81254  Biso   1.000  O 
  O7       1.0000 0.07202  1.00000  0.17657  Biso   1.000  O 
  O8       1.0000 0.60697  0.57774  0.47545  Biso   1.000  O 
  O9       1.0000 0.10698  0.92224  0.47536  Biso   1.000  O 
  O10      1.0000 0.39031  0.42354  0.51954  Biso   1.000  O 
  O11      1.0000 0.89035  0.92353  0.51944  Biso   1.000  O 
  O12      1.0000 0.88710  0.07729  0.18467  Biso   1.000  O 
  O13      1.0000 0.60695  0.42224  0.47546  Biso   1.000  O 
  O14      1.0000 0.38713  0.42269  0.18469  Biso   1.000  O 
  O15      1.0000 0.10729  0.07643  0.81256  Biso   1.000  O 
  O16      1.0000 0.38711  0.57729  0.18473  Biso   1.000  O 
  O17      1.0000 0.39033  0.57647  0.51956  Biso   1.000  O 
  O18      1.0000 0.42459  0.50000  0.81800  Biso   1.000  O 
  O19      1.0000 0.60729  0.57643  0.81262  Biso   1.000  O 
  O20      1.0000 0.60731  0.42357  0.81257  Biso   1.000  O 
