data_image0
_cell_length_a       13.1129
_cell_length_b       17.8099
_cell_length_c       6.70638
_cell_angle_alpha    90.0008
_cell_angle_beta     60.7945
_cell_angle_gamma    90.0004

_symmetry_space_group_name_H-M    "P 1"
_symmetry_int_tables_number       1

loop_
  _symmetry_equiv_pos_as_xyz
  'x, y, z'

loop_
  _atom_site_label
  _atom_site_occupancy
  _atom_site_fract_x
  _atom_site_fract_y
  _atom_site_fract_z
  _atom_site_thermal_displace_type
  _atom_site_B_iso_or_equiv
  _atom_site_type_symbol
  Al1      1.0000 0.99643  1.00000  0.99881  Biso   1.000  Al
  Al2      1.0000 0.49642  0.50000  0.99874  Biso   1.000  Al
  Al3      1.0000 0.99950  0.00000  0.49780  Biso   1.000  Al
  Al4      1.0000 0.49947  0.50000  0.49772  Biso   1.000  Al
  C1       1.0000 0.12940  0.89250  0.62291  Biso   1.000  C 
  C2       1.0000 0.24820  0.79079  0.68425  Biso   1.000  C 
  C3       1.0000 0.18999  0.22389  0.39090  Biso   1.000  C 
  C4       1.0000 0.62939  0.60749  0.62286  Biso   1.000  C 
  C5       1.0000 0.69067  0.68057  0.56605  Biso   1.000  C 
  C6       1.0000 0.19068  0.81942  0.56606  Biso   1.000  C 
  C7       1.0000 0.80411  0.22027  0.61566  Biso   1.000  C 
  C8       1.0000 0.74581  0.20725  0.32478  Biso   1.000  C 
  C9       1.0000 0.74577  0.79275  0.32482  Biso   1.000  C 
  C10      1.0000 0.69002  0.27610  0.39087  Biso   1.000  C 
  C11      1.0000 0.36676  0.60599  0.37426  Biso   1.000  C 
  C12      1.0000 0.30366  0.67939  0.43965  Biso   1.000  C 
  C13      1.0000 0.68999  0.72390  0.39091  Biso   1.000  C 
  C14      1.0000 0.12941  0.10749  0.62291  Biso   1.000  C 
  C15      1.0000 0.24578  0.29273  0.32478  Biso   1.000  C 
  C16      1.0000 0.30413  0.72026  0.61561  Biso   1.000  C 
  C17      1.0000 0.86678  0.10599  0.37434  Biso   1.000  C 
  C18      1.0000 0.19068  0.18057  0.56606  Biso   1.000  C 
  C19      1.0000 0.74820  0.29081  0.68425  Biso   1.000  C 
  C20      1.0000 0.74818  0.70920  0.68428  Biso   1.000  C 
  C21      1.0000 0.30411  0.27975  0.61563  Biso   1.000  C 
  C22      1.0000 0.69069  0.31943  0.56602  Biso   1.000  C 
  C23      1.0000 0.62940  0.39251  0.62284  Biso   1.000  C 
  C24      1.0000 0.24819  0.20921  0.68426  Biso   1.000  C 
  C25      1.0000 0.30364  0.32061  0.43966  Biso   1.000  C 
  C26      1.0000 0.86676  0.89401  0.37434  Biso   1.000  C 
  C27      1.0000 0.80363  0.82061  0.43973  Biso   1.000  C 
  C28      1.0000 0.80409  0.77974  0.61569  Biso   1.000  C 
  C29      1.0000 0.36675  0.39400  0.37424  Biso   1.000  C 
  C30      1.0000 0.24579  0.70726  0.32476  Biso   1.000  C 
  C31      1.0000 0.19000  0.77611  0.39089  Biso   1.000  C 
  C32      1.0000 0.80366  0.17939  0.43970  Biso   1.000  C 
  H1       1.0000 0.84263  0.00003  0.89409  Biso   1.000  H 
  H2       1.0000 0.34260  0.50000  0.89406  Biso   1.000  H 
  H3       1.0000 0.69676  0.37235  0.92796  Biso   1.000  H 
  H4       1.0000 0.34894  0.30297  0.70249  Biso   1.000  H 
  H5       1.0000 0.15492  0.00001  0.09813  Biso   1.000  H 
  H6       1.0000 0.84893  0.19705  0.70256  Biso   1.000  H 
  H7       1.0000 0.28742  0.80343  0.94368  Biso   1.000  H 
  H8       1.0000 0.14158  0.20157  0.31043  Biso   1.000  H 
  H9       1.0000 0.28741  0.19658  0.94371  Biso   1.000  H 
  H10      1.0000 0.65491  0.50001  0.09806  Biso   1.000  H 
  H11      1.0000 0.19677  0.12768  0.92802  Biso   1.000  H 
  H12      1.0000 0.84892  0.80295  0.70257  Biso   1.000  H 
  H13      1.0000 0.64162  0.29841  0.31034  Biso   1.000  H 
  H14      1.0000 0.64159  0.70159  0.31039  Biso   1.000  H 
  H15      1.0000 0.24405  0.67400  0.19022  Biso   1.000  H 
  H16      1.0000 0.24402  0.32600  0.19025  Biso   1.000  H 
  H17      1.0000 0.19678  0.87233  0.92800  Biso   1.000  H 
  H18      1.0000 0.14160  0.79842  0.31039  Biso   1.000  H 
  H19      1.0000 0.74407  0.17399  0.19023  Biso   1.000  H 
  H20      1.0000 0.34895  0.69703  0.70249  Biso   1.000  H 
  H21      1.0000 0.78741  0.30345  0.94370  Biso   1.000  H 
  H22      1.0000 0.74402  0.82602  0.19028  Biso   1.000  H 
  H23      1.0000 0.69674  0.62766  0.92799  Biso   1.000  H 
  H24      1.0000 0.78739  0.69656  0.94372  Biso   1.000  H 
  N1       1.0000 0.75392  0.32935  0.85407  Biso   1.000  N 
  N2       1.0000 0.75390  0.67066  0.85409  Biso   1.000  N 
  N3       1.0000 0.25393  0.17068  0.85409  Biso   1.000  N 
  N4       1.0000 0.25394  0.82933  0.85406  Biso   1.000  N 
  O1       1.0000 0.10448  0.07839  0.47786  Biso   1.000  O 
  O2       1.0000 0.89378  0.07709  0.51597  Biso   1.000  O 
  O3       1.0000 0.92715  1.00000  0.81543  Biso   1.000  O 
  O4       1.0000 0.89023  0.92209  0.18158  Biso   1.000  O 
  O5       1.0000 0.57034  0.50000  0.17802  Biso   1.000  O 
  O6       1.0000 0.10448  0.92287  0.81528  Biso   1.000  O 
  O7       1.0000 0.07035  1.00000  0.17810  Biso   1.000  O 
  O8       1.0000 0.60446  0.57840  0.47779  Biso   1.000  O 
  O9       1.0000 0.10446  0.92160  0.47787  Biso   1.000  O 
  O10      1.0000 0.39376  0.42292  0.51586  Biso   1.000  O 
  O11      1.0000 0.89377  0.92291  0.51596  Biso   1.000  O 
  O12      1.0000 0.89024  0.07790  0.18159  Biso   1.000  O 
  O13      1.0000 0.60446  0.42159  0.47777  Biso   1.000  O 
  O14      1.0000 0.39023  0.42208  0.18148  Biso   1.000  O 
  O15      1.0000 0.10449  0.07713  0.81528  Biso   1.000  O 
  O16      1.0000 0.39023  0.57790  0.18151  Biso   1.000  O 
  O17      1.0000 0.39376  0.57708  0.51588  Biso   1.000  O 
  O18      1.0000 0.42713  0.50000  0.81537  Biso   1.000  O 
  O19      1.0000 0.60446  0.57713  0.81524  Biso   1.000  O 
  O20      1.0000 0.60448  0.42288  0.81520  Biso   1.000  O 
