data_image0
_cell_length_a       10.0234
_cell_length_b       19.2715
_cell_length_c       6.74639
_cell_angle_alpha    89.9994
_cell_angle_beta     48.0524
_cell_angle_gamma    89.9992

_symmetry_space_group_name_H-M    "P 1"
_symmetry_int_tables_number       1

loop_
  _symmetry_equiv_pos_as_xyz
  'x, y, z'

loop_
  _atom_site_label
  _atom_site_occupancy
  _atom_site_fract_x
  _atom_site_fract_y
  _atom_site_fract_z
  _atom_site_thermal_displace_type
  _atom_site_B_iso_or_equiv
  _atom_site_type_symbol
  Al1      1.0000 0.99398  0.00000  0.00237  Biso   1.000  Al
  Al2      1.0000 0.49398  0.50000  0.00236  Biso   1.000  Al
  Al3      1.0000 0.99458  1.00000  0.50355  Biso   1.000  Al
  Al4      1.0000 0.49460  0.50001  0.50355  Biso   1.000  Al
  C1       1.0000 0.17244  0.89663  0.57686  Biso   1.000  C 
  C2       1.0000 0.25615  0.78585  0.67808  Biso   1.000  C 
  C3       1.0000 0.19460  0.21657  0.38341  Biso   1.000  C 
  C4       1.0000 0.67244  0.60337  0.57685  Biso   1.000  C 
  C5       1.0000 0.71114  0.67842  0.54406  Biso   1.000  C 
  C6       1.0000 0.21114  0.82158  0.54407  Biso   1.000  C 
  C7       1.0000 0.78039  0.21321  0.64406  Biso   1.000  C 
  C8       1.0000 0.72291  0.21256  0.34707  Biso   1.000  C 
  C9       1.0000 0.72254  0.78753  0.34744  Biso   1.000  C 
  C10      1.0000 0.69460  0.28344  0.38341  Biso   1.000  C 
  C11      1.0000 0.31263  0.60174  0.43255  Biso   1.000  C 
  C12      1.0000 0.26631  0.67714  0.48043  Biso   1.000  C 
  C13      1.0000 0.69425  0.71665  0.38376  Biso   1.000  C 
  C14      1.0000 0.17272  0.10330  0.57659  Biso   1.000  C 
  C15      1.0000 0.22292  0.28745  0.34706  Biso   1.000  C 
  C16      1.0000 0.28003  0.71313  0.64443  Biso   1.000  C 
  C17      1.0000 0.81288  0.10181  0.43233  Biso   1.000  C 
  C18      1.0000 0.21147  0.17834  0.54373  Biso   1.000  C 
  C19      1.0000 0.75654  0.28594  0.67769  Biso   1.000  C 
  C20      1.0000 0.75616  0.71415  0.67807  Biso   1.000  C 
  C21      1.0000 0.28041  0.28678  0.64405  Biso   1.000  C 
  C22      1.0000 0.71148  0.32166  0.54373  Biso   1.000  C 
  C23      1.0000 0.67273  0.39671  0.57658  Biso   1.000  C 
  C24      1.0000 0.25654  0.21406  0.67769  Biso   1.000  C 
  C25      1.0000 0.26666  0.32278  0.48009  Biso   1.000  C 
  C26      1.0000 0.81263  0.89826  0.43257  Biso   1.000  C 
  C27      1.0000 0.76631  0.82286  0.48044  Biso   1.000  C 
  C28      1.0000 0.78003  0.78687  0.64442  Biso   1.000  C 
  C29      1.0000 0.31289  0.39819  0.43233  Biso   1.000  C 
  C30      1.0000 0.22255  0.71248  0.34743  Biso   1.000  C 
  C31      1.0000 0.19425  0.78336  0.38376  Biso   1.000  C 
  C32      1.0000 0.76665  0.17722  0.48010  Biso   1.000  C 
  H1       1.0000 0.75537  0.00009  0.99005  Biso   1.000  H 
  H2       1.0000 0.25539  0.49990  0.99002  Biso   1.000  H 
  H3       1.0000 0.76131  0.37047  0.85575  Biso   1.000  H 
  H4       1.0000 0.31367  0.31536  0.74541  Biso   1.000  H 
  H5       1.0000 0.23494  0.99999  0.01594  Biso   1.000  H 
  H6       1.0000 0.81365  0.18464  0.74542  Biso   1.000  H 
  H7       1.0000 0.34445  0.79346  0.87721  Biso   1.000  H 
  H8       1.0000 0.15442  0.18810  0.29151  Biso   1.000  H 
  H9       1.0000 0.34481  0.20645  0.87688  Biso   1.000  H 
  H10      1.0000 0.73495  0.50001  0.01592  Biso   1.000  H 
  H11      1.0000 0.26129  0.12953  0.85577  Biso   1.000  H 
  H12      1.0000 0.81329  0.81544  0.74577  Biso   1.000  H 
  H13      1.0000 0.65442  0.31191  0.29150  Biso   1.000  H 
  H14      1.0000 0.65409  0.68818  0.29181  Biso   1.000  H 
  H15      1.0000 0.20896  0.68359  0.22306  Biso   1.000  H 
  H16      1.0000 0.20932  0.31634  0.22271  Biso   1.000  H 
  H17      1.0000 0.26093  0.87038  0.85611  Biso   1.000  H 
  H18      1.0000 0.15409  0.81183  0.29181  Biso   1.000  H 
  H19      1.0000 0.70930  0.18367  0.22273  Biso   1.000  H 
  H20      1.0000 0.31329  0.68455  0.74577  Biso   1.000  H 
  H21      1.0000 0.84482  0.29354  0.87686  Biso   1.000  H 
  H22      1.0000 0.70895  0.81642  0.22306  Biso   1.000  H 
  H23      1.0000 0.76094  0.62961  0.85610  Biso   1.000  H 
  H24      1.0000 0.84445  0.70654  0.87722  Biso   1.000  H 
  N1       1.0000 0.77746  0.31822  0.83435  Biso   1.000  N 
  N2       1.0000 0.77703  0.68187  0.83479  Biso   1.000  N 
  N3       1.0000 0.27745  0.18178  0.83436  Biso   1.000  N 
  N4       1.0000 0.27702  0.81813  0.83480  Biso   1.000  N 
  O1       1.0000 0.15172  0.07389  0.42915  Biso   1.000  O 
  O2       1.0000 0.83380  0.07188  0.57835  Biso   1.000  O 
  O3       1.0000 0.88522  0.00003  0.86123  Biso   1.000  O 
  O4       1.0000 0.83483  0.92706  0.24196  Biso   1.000  O 
  O5       1.0000 0.60511  0.50002  0.14305  Biso   1.000  O 
  O6       1.0000 0.15797  0.92886  0.75757  Biso   1.000  O 
  O7       1.0000 0.10510  0.99998  0.14306  Biso   1.000  O 
  O8       1.0000 0.65148  0.57397  0.42936  Biso   1.000  O 
  O9       1.0000 0.15148  0.92604  0.42938  Biso   1.000  O 
  O10      1.0000 0.33383  0.42811  0.57833  Biso   1.000  O 
  O11      1.0000 0.83360  0.92819  0.57853  Biso   1.000  O 
  O12      1.0000 0.83503  0.07301  0.24177  Biso   1.000  O 
  O13      1.0000 0.65175  0.42612  0.42911  Biso   1.000  O 
  O14      1.0000 0.33503  0.42700  0.24178  Biso   1.000  O 
  O15      1.0000 0.15820  0.07107  0.75736  Biso   1.000  O 
  O16      1.0000 0.33484  0.57294  0.24194  Biso   1.000  O 
  O17      1.0000 0.33361  0.57181  0.57851  Biso   1.000  O 
  O18      1.0000 0.38524  0.49998  0.86122  Biso   1.000  O 
  O19      1.0000 0.65798  0.57114  0.75756  Biso   1.000  O 
  O20      1.0000 0.65820  0.42893  0.75737  Biso   1.000  O 
