data_image0
_cell_length_a       13.383
_cell_length_b       17.6373
_cell_length_c       6.70698
_cell_angle_alpha    90.0007
_cell_angle_beta     61.442
_cell_angle_gamma    90.0007

_symmetry_space_group_name_H-M    "P 1"
_symmetry_int_tables_number       1

loop_
  _symmetry_equiv_pos_as_xyz
  'x, y, z'

loop_
  _atom_site_label
  _atom_site_occupancy
  _atom_site_fract_x
  _atom_site_fract_y
  _atom_site_fract_z
  _atom_site_thermal_displace_type
  _atom_site_B_iso_or_equiv
  _atom_site_type_symbol
  Al1      1.0000 0.99679  1.00000  0.99826  Biso   1.000  Al
  Al2      1.0000 0.49678  0.50000  0.99825  Biso   1.000  Al
  Al3      1.0000 0.00020  0.99999  0.49698  Biso   1.000  Al
  Al4      1.0000 0.50019  0.50000  0.49698  Biso   1.000  Al
  C1       1.0000 0.12759  0.89191  0.62461  Biso   1.000  C 
  C2       1.0000 0.24679  0.79106  0.68568  Biso   1.000  C 
  C3       1.0000 0.19061  0.22472  0.39049  Biso   1.000  C 
  C4       1.0000 0.62759  0.60808  0.62459  Biso   1.000  C 
  C5       1.0000 0.68967  0.68099  0.56713  Biso   1.000  C 
  C6       1.0000 0.18968  0.81901  0.56714  Biso   1.000  C 
  C7       1.0000 0.80414  0.22088  0.61558  Biso   1.000  C 
  C8       1.0000 0.74772  0.20673  0.32304  Biso   1.000  C 
  C9       1.0000 0.74769  0.79328  0.32307  Biso   1.000  C 
  C10      1.0000 0.69064  0.27527  0.39045  Biso   1.000  C 
  C11      1.0000 0.36955  0.60654  0.37164  Biso   1.000  C 
  C12      1.0000 0.30535  0.67963  0.43799  Biso   1.000  C 
  C13      1.0000 0.69061  0.72473  0.39048  Biso   1.000  C 
  C14      1.0000 0.12760  0.10807  0.62462  Biso   1.000  C 
  C15      1.0000 0.24768  0.29327  0.32306  Biso   1.000  C 
  C16      1.0000 0.30415  0.72087  0.61556  Biso   1.000  C 
  C17      1.0000 0.86955  0.10654  0.37167  Biso   1.000  C 
  C18      1.0000 0.18967  0.18099  0.56715  Biso   1.000  C 
  C19      1.0000 0.74678  0.29107  0.68567  Biso   1.000  C 
  C20      1.0000 0.74678  0.70894  0.68569  Biso   1.000  C 
  C21      1.0000 0.30413  0.27913  0.61558  Biso   1.000  C 
  C22      1.0000 0.68968  0.31901  0.56712  Biso   1.000  C 
  C23      1.0000 0.62759  0.39192  0.62459  Biso   1.000  C 
  C24      1.0000 0.24678  0.20894  0.68570  Biso   1.000  C 
  C25      1.0000 0.30533  0.32037  0.43800  Biso   1.000  C 
  C26      1.0000 0.86954  0.89347  0.37167  Biso   1.000  C 
  C27      1.0000 0.80533  0.82037  0.43801  Biso   1.000  C 
  C28      1.0000 0.80414  0.77913  0.61558  Biso   1.000  C 
  C29      1.0000 0.36954  0.39346  0.37165  Biso   1.000  C 
  C30      1.0000 0.24771  0.70673  0.32304  Biso   1.000  C 
  C31      1.0000 0.19062  0.77527  0.39047  Biso   1.000  C 
  C32      1.0000 0.80535  0.17963  0.43800  Biso   1.000  C 
  H1       1.0000 0.84719  0.00005  0.88892  Biso   1.000  H 
  H2       1.0000 0.34718  0.50001  0.88891  Biso   1.000  H 
  H3       1.0000 0.69315  0.37239  0.93131  Biso   1.000  H 
  H4       1.0000 0.34869  0.30182  0.70269  Biso   1.000  H 
  H5       1.0000 0.15110  0.00001  0.10126  Biso   1.000  H 
  H6       1.0000 0.84869  0.19819  0.70271  Biso   1.000  H 
  H7       1.0000 0.28422  0.80447  0.94697  Biso   1.000  H 
  H8       1.0000 0.14253  0.20296  0.30981  Biso   1.000  H 
  H9       1.0000 0.28421  0.19554  0.94699  Biso   1.000  H 
  H10      1.0000 0.65110  0.50000  0.10125  Biso   1.000  H 
  H11      1.0000 0.19316  0.12762  0.93135  Biso   1.000  H 
  H12      1.0000 0.84869  0.80182  0.70270  Biso   1.000  H 
  H13      1.0000 0.64257  0.29703  0.30974  Biso   1.000  H 
  H14      1.0000 0.64254  0.70297  0.30979  Biso   1.000  H 
  H15      1.0000 0.24720  0.67308  0.18737  Biso   1.000  H 
  H16      1.0000 0.24716  0.32691  0.18741  Biso   1.000  H 
  H17      1.0000 0.19317  0.87238  0.93133  Biso   1.000  H 
  H18      1.0000 0.14255  0.79703  0.30979  Biso   1.000  H 
  H19      1.0000 0.74721  0.17308  0.18738  Biso   1.000  H 
  H20      1.0000 0.34870  0.69818  0.70268  Biso   1.000  H 
  H21      1.0000 0.78420  0.30448  0.94698  Biso   1.000  H 
  H22      1.0000 0.74717  0.82693  0.18742  Biso   1.000  H 
  H23      1.0000 0.69314  0.62761  0.93132  Biso   1.000  H 
  H24      1.0000 0.78419  0.69553  0.94700  Biso   1.000  H 
  N1       1.0000 0.75069  0.33006  0.85728  Biso   1.000  N 
  N2       1.0000 0.75068  0.66995  0.85729  Biso   1.000  N 
  N3       1.0000 0.25069  0.16996  0.85730  Biso   1.000  N 
  N4       1.0000 0.25070  0.83005  0.85728  Biso   1.000  N 
  O1       1.0000 0.10265  0.07900  0.47949  Biso   1.000  O 
  O2       1.0000 0.89701  0.07785  0.51289  Biso   1.000  O 
  O3       1.0000 0.92950  0.00000  0.81286  Biso   1.000  O 
  O4       1.0000 0.89316  0.92156  0.17883  Biso   1.000  O 
  O5       1.0000 0.56877  0.50000  0.17940  Biso   1.000  O 
  O6       1.0000 0.10221  0.92218  0.81738  Biso   1.000  O 
  O7       1.0000 0.06877  1.00000  0.17940  Biso   1.000  O 
  O8       1.0000 0.60264  0.57901  0.47948  Biso   1.000  O 
  O9       1.0000 0.10263  0.92098  0.47950  Biso   1.000  O 
  O10      1.0000 0.39700  0.42215  0.51287  Biso   1.000  O 
  O11      1.0000 0.89700  0.92216  0.51290  Biso   1.000  O 
  O12      1.0000 0.89316  0.07843  0.17883  Biso   1.000  O 
  O13      1.0000 0.60263  0.42098  0.47948  Biso   1.000  O 
  O14      1.0000 0.39316  0.42156  0.17880  Biso   1.000  O 
  O15      1.0000 0.10222  0.07781  0.81739  Biso   1.000  O 
  O16      1.0000 0.39316  0.57844  0.17881  Biso   1.000  O 
  O17      1.0000 0.39702  0.57785  0.51285  Biso   1.000  O 
  O18      1.0000 0.42949  0.50000  0.81286  Biso   1.000  O 
  O19      1.0000 0.60222  0.57781  0.81737  Biso   1.000  O 
  O20      1.0000 0.60222  0.42219  0.81736  Biso   1.000  O 
