data_image0
_cell_length_a       9.78887
_cell_length_b       19.3271
_cell_length_c       6.76063
_cell_angle_alpha    89.9987
_cell_angle_beta     46.703
_cell_angle_gamma    89.9985

_symmetry_space_group_name_H-M    "P 1"
_symmetry_int_tables_number       1

loop_
  _symmetry_equiv_pos_as_xyz
  'x, y, z'

loop_
  _atom_site_label
  _atom_site_occupancy
  _atom_site_fract_x
  _atom_site_fract_y
  _atom_site_fract_z
  _atom_site_thermal_displace_type
  _atom_site_B_iso_or_equiv
  _atom_site_type_symbol
  Al1      1.0000 0.99324  1.00000  0.00297  Biso   1.000  Al
  Al2      1.0000 0.49322  0.50000  0.00300  Biso   1.000  Al
  Al3      1.0000 0.99404  1.00000  0.50411  Biso   1.000  Al
  Al4      1.0000 0.49404  0.50000  0.50412  Biso   1.000  Al
  C1       1.0000 0.17826  0.89688  0.57127  Biso   1.000  C 
  C2       1.0000 0.25383  0.78541  0.68097  Biso   1.000  C 
  C3       1.0000 0.20084  0.21571  0.37675  Biso   1.000  C 
  C4       1.0000 0.67823  0.60313  0.57130  Biso   1.000  C 
  C5       1.0000 0.71447  0.67824  0.54101  Biso   1.000  C 
  C6       1.0000 0.21449  0.82176  0.54099  Biso   1.000  C 
  C7       1.0000 0.77429  0.21284  0.65059  Biso   1.000  C 
  C8       1.0000 0.72675  0.21346  0.34245  Biso   1.000  C 
  C9       1.0000 0.72618  0.78668  0.34300  Biso   1.000  C 
  C10      1.0000 0.70083  0.28430  0.37677  Biso   1.000  C 
  C11      1.0000 0.30610  0.60170  0.43898  Biso   1.000  C 
  C12      1.0000 0.26310  0.67731  0.48340  Biso   1.000  C 
  C13      1.0000 0.70026  0.71583  0.37730  Biso   1.000  C 
  C14      1.0000 0.17874  0.10300  0.57083  Biso   1.000  C 
  C15      1.0000 0.22674  0.28655  0.34246  Biso   1.000  C 
  C16      1.0000 0.27366  0.71272  0.65122  Biso   1.000  C 
  C17      1.0000 0.80656  0.10182  0.43852  Biso   1.000  C 
  C18      1.0000 0.21506  0.17811  0.54044  Biso   1.000  C 
  C19      1.0000 0.75447  0.28554  0.68036  Biso   1.000  C 
  C20      1.0000 0.75383  0.71459  0.68098  Biso   1.000  C 
  C21      1.0000 0.27428  0.28715  0.65060  Biso   1.000  C 
  C22      1.0000 0.71505  0.32189  0.54047  Biso   1.000  C 
  C23      1.0000 0.67873  0.39700  0.57087  Biso   1.000  C 
  C24      1.0000 0.25448  0.21446  0.68034  Biso   1.000  C 
  C25      1.0000 0.26368  0.32256  0.48283  Biso   1.000  C 
  C26      1.0000 0.80611  0.89830  0.43897  Biso   1.000  C 
  C27      1.0000 0.76311  0.82269  0.48339  Biso   1.000  C 
  C28      1.0000 0.77367  0.78728  0.65121  Biso   1.000  C 
  C29      1.0000 0.30654  0.39818  0.43856  Biso   1.000  C 
  C30      1.0000 0.22617  0.71332  0.34300  Biso   1.000  C 
  C31      1.0000 0.20027  0.78417  0.37728  Biso   1.000  C 
  C32      1.0000 0.76369  0.17744  0.48281  Biso   1.000  C 
  H1       1.0000 0.74347  0.00010  0.00144  Biso   1.000  H 
  H2       1.0000 0.24346  0.49989  0.00148  Biso   1.000  H 
  H3       1.0000 0.76407  0.36959  0.85288  Biso   1.000  H 
  H4       1.0000 0.30223  0.31622  0.75769  Biso   1.000  H 
  H5       1.0000 0.24543  0.99994  0.00536  Biso   1.000  H 
  H6       1.0000 0.80225  0.18377  0.75766  Biso   1.000  H 
  H7       1.0000 0.34456  0.79211  0.87685  Biso   1.000  H 
  H8       1.0000 0.16376  0.18668  0.28165  Biso   1.000  H 
  H9       1.0000 0.34520  0.20774  0.87626  Biso   1.000  H 
  H10      1.0000 0.74542  0.50005  0.00539  Biso   1.000  H 
  H11      1.0000 0.26409  0.13040  0.85284  Biso   1.000  H 
  H12      1.0000 0.80166  0.81634  0.75825  Biso   1.000  H 
  H13      1.0000 0.66376  0.31333  0.28167  Biso   1.000  H 
  H14      1.0000 0.66319  0.68682  0.28217  Biso   1.000  H 
  H15      1.0000 0.21510  0.68489  0.21549  Biso   1.000  H 
  H16      1.0000 0.21563  0.31499  0.21498  Biso   1.000  H 
  H17      1.0000 0.26355  0.86946  0.85336  Biso   1.000  H 
  H18      1.0000 0.16321  0.81319  0.28216  Biso   1.000  H 
  H19      1.0000 0.71563  0.18502  0.21497  Biso   1.000  H 
  H20      1.0000 0.30164  0.68365  0.75828  Biso   1.000  H 
  H21      1.0000 0.84519  0.29225  0.87628  Biso   1.000  H 
  H22      1.0000 0.71511  0.81512  0.21547  Biso   1.000  H 
  H23      1.0000 0.76353  0.63054  0.85339  Biso   1.000  H 
  H24      1.0000 0.84456  0.70788  0.87684  Biso   1.000  H 
  N1       1.0000 0.77331  0.31718  0.84003  Biso   1.000  N 
  N2       1.0000 0.77264  0.68295  0.84069  Biso   1.000  N 
  N3       1.0000 0.27333  0.18280  0.84000  Biso   1.000  N 
  N4       1.0000 0.27265  0.81705  0.84068  Biso   1.000  N 
  O1       1.0000 0.15855  0.07352  0.42291  Biso   1.000  O 
  O2       1.0000 0.82630  0.07178  0.58540  Biso   1.000  O 
  O3       1.0000 0.87937  0.00004  0.86697  Biso   1.000  O 
  O4       1.0000 0.82731  0.92725  0.24970  Biso   1.000  O 
  O5       1.0000 0.60951  0.50004  0.13880  Biso   1.000  O 
  O6       1.0000 0.16452  0.92912  0.75087  Biso   1.000  O 
  O7       1.0000 0.10952  0.99996  0.13877  Biso   1.000  O 
  O8       1.0000 0.65806  0.57365  0.42336  Biso   1.000  O 
  O9       1.0000 0.15810  0.92635  0.42332  Biso   1.000  O 
  O10      1.0000 0.32630  0.42822  0.58543  Biso   1.000  O 
  O11      1.0000 0.82585  0.92836  0.58582  Biso   1.000  O 
  O12      1.0000 0.82758  0.07284  0.24946  Biso   1.000  O 
  O13      1.0000 0.65855  0.42649  0.42294  Biso   1.000  O 
  O14      1.0000 0.32756  0.42716  0.24951  Biso   1.000  O 
  O15      1.0000 0.16492  0.07076  0.75052  Biso   1.000  O 
  O16      1.0000 0.32730  0.57276  0.24972  Biso   1.000  O 
  O17      1.0000 0.32583  0.57164  0.58585  Biso   1.000  O 
  O18      1.0000 0.37935  0.49996  0.86701  Biso   1.000  O 
  O19      1.0000 0.66450  0.57088  0.75089  Biso   1.000  O 
  O20      1.0000 0.66491  0.42924  0.75056  Biso   1.000  O 
