data_image0
_cell_length_a       9.64608
_cell_length_b       19.3672
_cell_length_c       6.7698
_cell_angle_alpha    90.0041
_cell_angle_beta     45.0765
_cell_angle_gamma    90.0035

_symmetry_space_group_name_H-M    "P 1"
_symmetry_int_tables_number       1

loop_
  _symmetry_equiv_pos_as_xyz
  'x, y, z'

loop_
  _atom_site_label
  _atom_site_occupancy
  _atom_site_fract_x
  _atom_site_fract_y
  _atom_site_fract_z
  _atom_site_thermal_displace_type
  _atom_site_B_iso_or_equiv
  _atom_site_type_symbol
  Al1      1.0000 0.99303  0.00000  0.00309  Biso   1.000  Al
  Al2      1.0000 0.49304  0.50000  0.00308  Biso   1.000  Al
  Al3      1.0000 0.99510  0.99999  0.50287  Biso   1.000  Al
  Al4      1.0000 0.49514  0.50000  0.50283  Biso   1.000  Al
  C1       1.0000 0.18480  0.89708  0.56280  Biso   1.000  C 
  C2       1.0000 0.25158  0.78559  0.68311  Biso   1.000  C 
  C3       1.0000 0.20579  0.21565  0.37166  Biso   1.000  C 
  C4       1.0000 0.68482  0.60292  0.56281  Biso   1.000  C 
  C5       1.0000 0.71790  0.67809  0.53688  Biso   1.000  C 
  C6       1.0000 0.21789  0.82191  0.53688  Biso   1.000  C 
  C7       1.0000 0.76763  0.21291  0.65843  Biso   1.000  C 
  C8       1.0000 0.72892  0.21349  0.34119  Biso   1.000  C 
  C9       1.0000 0.72880  0.78652  0.34121  Biso   1.000  C 
  C10      1.0000 0.70578  0.28434  0.37166  Biso   1.000  C 
  C11      1.0000 0.30036  0.60168  0.44688  Biso   1.000  C 
  C12      1.0000 0.25984  0.67742  0.48814  Biso   1.000  C 
  C13      1.0000 0.70568  0.71568  0.37167  Biso   1.000  C 
  C14      1.0000 0.18489  0.10288  0.56281  Biso   1.000  C 
  C15      1.0000 0.22895  0.28649  0.34115  Biso   1.000  C 
  C16      1.0000 0.26757  0.71288  0.65839  Biso   1.000  C 
  C17      1.0000 0.80041  0.10171  0.44689  Biso   1.000  C 
  C18      1.0000 0.21797  0.17806  0.53690  Biso   1.000  C 
  C19      1.0000 0.75165  0.28562  0.68313  Biso   1.000  C 
  C20      1.0000 0.75158  0.71442  0.68312  Biso   1.000  C 
  C21      1.0000 0.26764  0.28710  0.65840  Biso   1.000  C 
  C22      1.0000 0.71798  0.32194  0.53687  Biso   1.000  C 
  C23      1.0000 0.68492  0.39711  0.56273  Biso   1.000  C 
  C24      1.0000 0.25165  0.21440  0.68315  Biso   1.000  C 
  C25      1.0000 0.25994  0.32254  0.48811  Biso   1.000  C 
  C26      1.0000 0.80032  0.89832  0.44688  Biso   1.000  C 
  C27      1.0000 0.75982  0.82257  0.48814  Biso   1.000  C 
  C28      1.0000 0.76756  0.78713  0.65839  Biso   1.000  C 
  C29      1.0000 0.30045  0.39828  0.44682  Biso   1.000  C 
  C30      1.0000 0.22883  0.71346  0.34120  Biso   1.000  C 
  C31      1.0000 0.20568  0.78431  0.37166  Biso   1.000  C 
  C32      1.0000 0.75991  0.17745  0.48815  Biso   1.000  C 
  H1       1.0000 0.73278  0.00005  0.01493  Biso   1.000  H 
  H2       1.0000 0.23282  0.49994  0.01489  Biso   1.000  H 
  H3       1.0000 0.76622  0.36966  0.84867  Biso   1.000  H 
  H4       1.0000 0.29081  0.31611  0.77095  Biso   1.000  H 
  H5       1.0000 0.25697  0.00002  0.98943  Biso   1.000  H 
  H6       1.0000 0.79079  0.18392  0.77099  Biso   1.000  H 
  H7       1.0000 0.34369  0.79206  0.87580  Biso   1.000  H 
  H8       1.0000 0.17174  0.18642  0.27349  Biso   1.000  H 
  H9       1.0000 0.34386  0.20794  0.87572  Biso   1.000  H 
  H10      1.0000 0.75701  0.50000  0.98940  Biso   1.000  H 
  H11      1.0000 0.26618  0.13037  0.84876  Biso   1.000  H 
  H12      1.0000 0.79081  0.81615  0.77083  Biso   1.000  H 
  H13      1.0000 0.67174  0.31355  0.27346  Biso   1.000  H 
  H14      1.0000 0.67167  0.68645  0.27345  Biso   1.000  H 
  H15      1.0000 0.21969  0.68500  0.21207  Biso   1.000  H 
  H16      1.0000 0.21981  0.31493  0.21202  Biso   1.000  H 
  H17      1.0000 0.26606  0.86963  0.84875  Biso   1.000  H 
  H18      1.0000 0.17167  0.81353  0.27344  Biso   1.000  H 
  H19      1.0000 0.71976  0.18503  0.21208  Biso   1.000  H 
  H20      1.0000 0.29081  0.68388  0.77084  Biso   1.000  H 
  H21      1.0000 0.84388  0.29211  0.87569  Biso   1.000  H 
  H22      1.0000 0.71963  0.81497  0.21211  Biso   1.000  H 
  H23      1.0000 0.76608  0.63040  0.84875  Biso   1.000  H 
  H24      1.0000 0.84369  0.70798  0.87583  Biso   1.000  H 
  N1       1.0000 0.76855  0.31722  0.84465  Biso   1.000  N 
  N2       1.0000 0.76848  0.68284  0.84463  Biso   1.000  N 
  N3       1.0000 0.26852  0.18281  0.84471  Biso   1.000  N 
  N4       1.0000 0.26846  0.81719  0.84463  Biso   1.000  N 
  O1       1.0000 0.16622  0.07353  0.41341  Biso   1.000  O 
  O2       1.0000 0.81999  0.07177  0.59362  Biso   1.000  O 
  O3       1.0000 0.87458  0.00002  0.87285  Biso   1.000  O 
  O4       1.0000 0.82023  0.92758  0.25910  Biso   1.000  O 
  O5       1.0000 0.61520  0.50001  0.13137  Biso   1.000  O 
  O6       1.0000 0.17181  0.92965  0.74104  Biso   1.000  O 
  O7       1.0000 0.11516  0.99999  0.13141  Biso   1.000  O 
  O8       1.0000 0.66613  0.57355  0.41346  Biso   1.000  O 
  O9       1.0000 0.16607  0.92643  0.41349  Biso   1.000  O 
  O10      1.0000 0.31998  0.42825  0.59358  Biso   1.000  O 
  O11      1.0000 0.81987  0.92827  0.59365  Biso   1.000  O 
  O12      1.0000 0.82029  0.07243  0.25912  Biso   1.000  O 
  O13      1.0000 0.66623  0.42645  0.41335  Biso   1.000  O 
  O14      1.0000 0.32039  0.42755  0.25900  Biso   1.000  O 
  O15      1.0000 0.17186  0.07034  0.74108  Biso   1.000  O 
  O16      1.0000 0.32023  0.57239  0.25914  Biso   1.000  O 
  O17      1.0000 0.31996  0.57175  0.59361  Biso   1.000  O 
  O18      1.0000 0.37463  0.49997  0.87282  Biso   1.000  O 
  O19      1.0000 0.67182  0.57037  0.74108  Biso   1.000  O 
  O20      1.0000 0.67193  0.42967  0.74096  Biso   1.000  O 
