data_image0
_cell_length_a       14.6792
_cell_length_b       16.6986
_cell_length_c       6.72072
_cell_angle_alpha    90
_cell_angle_beta     64.2187
_cell_angle_gamma    90.0001

_symmetry_space_group_name_H-M    "P 1"
_symmetry_int_tables_number       1

loop_
  _symmetry_equiv_pos_as_xyz
  'x, y, z'

loop_
  _atom_site_label
  _atom_site_occupancy
  _atom_site_fract_x
  _atom_site_fract_y
  _atom_site_fract_z
  _atom_site_thermal_displace_type
  _atom_site_B_iso_or_equiv
  _atom_site_type_symbol
  Al1      1.0000 0.99799  0.00000  0.99678  Biso   1.000  Al
  Al2      1.0000 0.49798  0.50000  0.99679  Biso   1.000  Al
  Al3      1.0000 0.00140  0.00000  0.49540  Biso   1.000  Al
  Al4      1.0000 0.50139  0.50000  0.49540  Biso   1.000  Al
  C1       1.0000 0.11962  0.88851  0.63247  Biso   1.000  C 
  C2       1.0000 0.24082  0.79247  0.69168  Biso   1.000  C 
  C3       1.0000 0.19480  0.22815  0.38684  Biso   1.000  C 
  C4       1.0000 0.61961  0.61149  0.63247  Biso   1.000  C 
  C5       1.0000 0.68586  0.68294  0.57138  Biso   1.000  C 
  C6       1.0000 0.18587  0.81706  0.57138  Biso   1.000  C 
  C7       1.0000 0.80366  0.22425  0.61596  Biso   1.000  C 
  C8       1.0000 0.75705  0.20530  0.31413  Biso   1.000  C 
  C9       1.0000 0.75706  0.79469  0.31412  Biso   1.000  C 
  C10      1.0000 0.69480  0.27185  0.38684  Biso   1.000  C 
  C11      1.0000 0.38030  0.60998  0.36096  Biso   1.000  C 
  C12      1.0000 0.31234  0.68161  0.43103  Biso   1.000  C 
  C13      1.0000 0.69481  0.72815  0.38684  Biso   1.000  C 
  C14      1.0000 0.11961  0.11149  0.63248  Biso   1.000  C 
  C15      1.0000 0.25705  0.29469  0.31412  Biso   1.000  C 
  C16      1.0000 0.30367  0.72425  0.61594  Biso   1.000  C 
  C17      1.0000 0.88030  0.10998  0.36099  Biso   1.000  C 
  C18      1.0000 0.18586  0.18295  0.57138  Biso   1.000  C 
  C19      1.0000 0.74081  0.29247  0.69170  Biso   1.000  C 
  C20      1.0000 0.74081  0.70753  0.69169  Biso   1.000  C 
  C21      1.0000 0.30366  0.27575  0.61594  Biso   1.000  C 
  C22      1.0000 0.68586  0.31705  0.57139  Biso   1.000  C 
  C23      1.0000 0.61960  0.38851  0.63248  Biso   1.000  C 
  C24      1.0000 0.24082  0.20754  0.69169  Biso   1.000  C 
  C25      1.0000 0.31234  0.31839  0.43103  Biso   1.000  C 
  C26      1.0000 0.88032  0.89001  0.36096  Biso   1.000  C 
  C27      1.0000 0.81235  0.81839  0.43104  Biso   1.000  C 
  C28      1.0000 0.80366  0.77574  0.61595  Biso   1.000  C 
  C29      1.0000 0.38031  0.39001  0.36096  Biso   1.000  C 
  C30      1.0000 0.25705  0.70531  0.31412  Biso   1.000  C 
  C31      1.0000 0.19481  0.77185  0.38684  Biso   1.000  C 
  C32      1.0000 0.81234  0.18160  0.43106  Biso   1.000  C 
  H1       1.0000 0.86547  0.00003  0.86966  Biso   1.000  H 
  H2       1.0000 0.36546  0.50000  0.86965  Biso   1.000  H 
  H3       1.0000 0.67882  0.37197  0.94558  Biso   1.000  H 
  H4       1.0000 0.34645  0.29579  0.70485  Biso   1.000  H 
  H5       1.0000 0.13534  0.00001  0.11674  Biso   1.000  H 
  H6       1.0000 0.84644  0.20422  0.70487  Biso   1.000  H 
  H7       1.0000 0.27084  0.80907  0.96019  Biso   1.000  H 
  H8       1.0000 0.14905  0.20932  0.30385  Biso   1.000  H 
  H9       1.0000 0.27083  0.19094  0.96020  Biso   1.000  H 
  H10      1.0000 0.63533  0.50001  0.11673  Biso   1.000  H 
  H11      1.0000 0.17883  0.12804  0.94559  Biso   1.000  H 
  H12      1.0000 0.84645  0.79578  0.70486  Biso   1.000  H 
  H13      1.0000 0.64905  0.29067  0.30386  Biso   1.000  H 
  H14      1.0000 0.64905  0.70933  0.30385  Biso   1.000  H 
  H15      1.0000 0.26258  0.67039  0.17242  Biso   1.000  H 
  H16      1.0000 0.26258  0.32961  0.17243  Biso   1.000  H 
  H17      1.0000 0.17884  0.87197  0.94557  Biso   1.000  H 
  H18      1.0000 0.14905  0.79068  0.30385  Biso   1.000  H 
  H19      1.0000 0.76257  0.17038  0.17245  Biso   1.000  H 
  H20      1.0000 0.34645  0.70421  0.70485  Biso   1.000  H 
  H21      1.0000 0.77082  0.30907  0.96021  Biso   1.000  H 
  H22      1.0000 0.76258  0.82961  0.17244  Biso   1.000  H 
  H23      1.0000 0.67882  0.62803  0.94558  Biso   1.000  H 
  H24      1.0000 0.77083  0.69093  0.96019  Biso   1.000  H 
  N1       1.0000 0.73723  0.33322  0.87078  Biso   1.000  N 
  N2       1.0000 0.73723  0.66678  0.87077  Biso   1.000  N 
  N3       1.0000 0.23724  0.16679  0.87077  Biso   1.000  N 
  N4       1.0000 0.23724  0.83321  0.87076  Biso   1.000  N 
  O1       1.0000 0.09384  0.08275  0.48819  Biso   1.000  O 
  O2       1.0000 0.90896  0.08199  0.50083  Biso   1.000  O 
  O3       1.0000 0.93866  1.00000  0.80323  Biso   1.000  O 
  O4       1.0000 0.90461  0.91790  0.16767  Biso   1.000  O 
  O5       1.0000 0.56210  0.50000  0.18546  Biso   1.000  O 
  O6       1.0000 0.09237  0.91813  0.82656  Biso   1.000  O 
  O7       1.0000 0.06210  1.00000  0.18546  Biso   1.000  O 
  O8       1.0000 0.59383  0.58276  0.48819  Biso   1.000  O 
  O9       1.0000 0.09383  0.91724  0.48819  Biso   1.000  O 
  O10      1.0000 0.40896  0.41801  0.50080  Biso   1.000  O 
  O11      1.0000 0.90896  0.91801  0.50082  Biso   1.000  O 
  O12      1.0000 0.90459  0.08209  0.16770  Biso   1.000  O 
  O13      1.0000 0.59383  0.41725  0.48819  Biso   1.000  O 
  O14      1.0000 0.40459  0.41790  0.16767  Biso   1.000  O 
  O15      1.0000 0.09235  0.08189  0.82660  Biso   1.000  O 
  O16      1.0000 0.40460  0.58210  0.16766  Biso   1.000  O 
  O17      1.0000 0.40895  0.58198  0.50080  Biso   1.000  O 
  O18      1.0000 0.43865  0.50000  0.80323  Biso   1.000  O 
  O19      1.0000 0.59235  0.58188  0.82658  Biso   1.000  O 
  O20      1.0000 0.59235  0.41812  0.82660  Biso   1.000  O 
