data_image0
_cell_length_a       13.2803
_cell_length_b       17.7012
_cell_length_c       6.70737
_cell_angle_alpha    90.0004
_cell_angle_beta     61.1453
_cell_angle_gamma    90.0007

_symmetry_space_group_name_H-M    "P 1"
_symmetry_int_tables_number       1

loop_
  _symmetry_equiv_pos_as_xyz
  'x, y, z'

loop_
  _atom_site_label
  _atom_site_occupancy
  _atom_site_fract_x
  _atom_site_fract_y
  _atom_site_fract_z
  _atom_site_thermal_displace_type
  _atom_site_B_iso_or_equiv
  _atom_site_type_symbol
  Al1      1.0000 0.99691  0.99999  0.99810  Biso   1.000  Al
  Al2      1.0000 0.49688  0.49999  0.99808  Biso   1.000  Al
  Al3      1.0000 0.00062  0.00000  0.49643  Biso   1.000  Al
  Al4      1.0000 0.50061  0.50000  0.49635  Biso   1.000  Al
  C1       1.0000 0.12846  0.89204  0.62352  Biso   1.000  C 
  C2       1.0000 0.24687  0.79073  0.68578  Biso   1.000  C 
  C3       1.0000 0.19030  0.22464  0.39082  Biso   1.000  C 
  C4       1.0000 0.62844  0.60796  0.62348  Biso   1.000  C 
  C5       1.0000 0.68987  0.68106  0.56691  Biso   1.000  C 
  C6       1.0000 0.18988  0.81894  0.56692  Biso   1.000  C 
  C7       1.0000 0.80389  0.22047  0.61611  Biso   1.000  C 
  C8       1.0000 0.74691  0.20665  0.32411  Biso   1.000  C 
  C9       1.0000 0.74689  0.79335  0.32412  Biso   1.000  C 
  C10      1.0000 0.69032  0.27535  0.39077  Biso   1.000  C 
  C11      1.0000 0.36876  0.60623  0.37251  Biso   1.000  C 
  C12      1.0000 0.30468  0.67935  0.43895  Biso   1.000  C 
  C13      1.0000 0.69029  0.72465  0.39080  Biso   1.000  C 
  C14      1.0000 0.12846  0.10795  0.62353  Biso   1.000  C 
  C15      1.0000 0.24687  0.29334  0.32413  Biso   1.000  C 
  C16      1.0000 0.30389  0.72045  0.61611  Biso   1.000  C 
  C17      1.0000 0.86879  0.10624  0.37256  Biso   1.000  C 
  C18      1.0000 0.18987  0.18105  0.56693  Biso   1.000  C 
  C19      1.0000 0.74688  0.29074  0.68577  Biso   1.000  C 
  C20      1.0000 0.74685  0.70926  0.68579  Biso   1.000  C 
  C21      1.0000 0.30387  0.27955  0.61611  Biso   1.000  C 
  C22      1.0000 0.68989  0.31894  0.56689  Biso   1.000  C 
  C23      1.0000 0.62845  0.39204  0.62346  Biso   1.000  C 
  C24      1.0000 0.24686  0.20927  0.68579  Biso   1.000  C 
  C25      1.0000 0.30467  0.32065  0.43897  Biso   1.000  C 
  C26      1.0000 0.86877  0.89377  0.37258  Biso   1.000  C 
  C27      1.0000 0.80468  0.82065  0.43899  Biso   1.000  C 
  C28      1.0000 0.80387  0.77954  0.61614  Biso   1.000  C 
  C29      1.0000 0.36876  0.39376  0.37251  Biso   1.000  C 
  C30      1.0000 0.24689  0.70665  0.32412  Biso   1.000  C 
  C31      1.0000 0.19031  0.77535  0.39080  Biso   1.000  C 
  C32      1.0000 0.80469  0.17936  0.43897  Biso   1.000  C 
  H1       1.0000 0.84593  0.00007  0.88970  Biso   1.000  H 
  H2       1.0000 0.34592  0.50001  0.88959  Biso   1.000  H 
  H3       1.0000 0.69379  0.37228  0.93056  Biso   1.000  H 
  H4       1.0000 0.34852  0.30239  0.70314  Biso   1.000  H 
  H5       1.0000 0.15319  0.00001  0.09834  Biso   1.000  H 
  H6       1.0000 0.84853  0.19764  0.70318  Biso   1.000  H 
  H7       1.0000 0.28480  0.80393  0.94649  Biso   1.000  H 
  H8       1.0000 0.14215  0.20264  0.31017  Biso   1.000  H 
  H9       1.0000 0.28479  0.19608  0.94651  Biso   1.000  H 
  H10      1.0000 0.65319  0.50000  0.09821  Biso   1.000  H 
  H11      1.0000 0.19382  0.12775  0.93063  Biso   1.000  H 
  H12      1.0000 0.84850  0.80237  0.70320  Biso   1.000  H 
  H13      1.0000 0.64218  0.29733  0.31007  Biso   1.000  H 
  H14      1.0000 0.64216  0.70267  0.31011  Biso   1.000  H 
  H15      1.0000 0.24597  0.67306  0.18898  Biso   1.000  H 
  H16      1.0000 0.24594  0.32694  0.18901  Biso   1.000  H 
  H17      1.0000 0.19383  0.87225  0.93061  Biso   1.000  H 
  H18      1.0000 0.14216  0.79735  0.31015  Biso   1.000  H 
  H19      1.0000 0.74600  0.17304  0.18899  Biso   1.000  H 
  H20      1.0000 0.34853  0.69761  0.70313  Biso   1.000  H 
  H21      1.0000 0.78478  0.30396  0.94649  Biso   1.000  H 
  H22      1.0000 0.74598  0.82696  0.18901  Biso   1.000  H 
  H23      1.0000 0.69377  0.62773  0.93059  Biso   1.000  H 
  H24      1.0000 0.78475  0.69605  0.94651  Biso   1.000  H 
  N1       1.0000 0.75107  0.32955  0.85707  Biso   1.000  N 
  N2       1.0000 0.75104  0.67046  0.85710  Biso   1.000  N 
  N3       1.0000 0.25106  0.17049  0.85712  Biso   1.000  N 
  N4       1.0000 0.25107  0.82951  0.85709  Biso   1.000  N 
  O1       1.0000 0.10396  0.07881  0.47792  Biso   1.000  O 
  O2       1.0000 0.89640  0.07754  0.51349  Biso   1.000  O 
  O3       1.0000 0.92909  1.00000  0.81319  Biso   1.000  O 
  O4       1.0000 0.89229  0.92183  0.17973  Biso   1.000  O 
  O5       1.0000 0.56998  0.50000  0.17777  Biso   1.000  O 
  O6       1.0000 0.10319  0.92242  0.81609  Biso   1.000  O 
  O7       1.0000 0.06998  1.00000  0.17788  Biso   1.000  O 
  O8       1.0000 0.60394  0.57883  0.47786  Biso   1.000  O 
  O9       1.0000 0.10395  0.92117  0.47793  Biso   1.000  O 
  O10      1.0000 0.39639  0.42246  0.51341  Biso   1.000  O 
  O11      1.0000 0.89638  0.92247  0.51351  Biso   1.000  O 
  O12      1.0000 0.89229  0.07816  0.17974  Biso   1.000  O 
  O13      1.0000 0.60395  0.42117  0.47786  Biso   1.000  O 
  O14      1.0000 0.39226  0.42183  0.17967  Biso   1.000  O 
  O15      1.0000 0.10320  0.07757  0.81610  Biso   1.000  O 
  O16      1.0000 0.39226  0.57817  0.17967  Biso   1.000  O 
  O17      1.0000 0.39638  0.57752  0.51342  Biso   1.000  O 
  O18      1.0000 0.42909  0.50000  0.81310  Biso   1.000  O 
  O19      1.0000 0.60318  0.57757  0.81604  Biso   1.000  O 
  O20      1.0000 0.60318  0.42242  0.81603  Biso   1.000  O 
