data_image0
_cell_length_a       13.788
_cell_length_b       17.3602
_cell_length_c       6.7091
_cell_angle_alpha    90.0006
_cell_angle_beta     62.2768
_cell_angle_gamma    90

_symmetry_space_group_name_H-M    "P 1"
_symmetry_int_tables_number       1

loop_
  _symmetry_equiv_pos_as_xyz
  'x, y, z'

loop_
  _atom_site_label
  _atom_site_occupancy
  _atom_site_fract_x
  _atom_site_fract_y
  _atom_site_fract_z
  _atom_site_thermal_displace_type
  _atom_site_B_iso_or_equiv
  _atom_site_type_symbol
  Al1      1.0000 0.99741  1.00000  0.99754  Biso   1.000  Al
  Al2      1.0000 0.49740  0.50000  0.99753  Biso   1.000  Al
  Al3      1.0000 0.00106  0.99999  0.49588  Biso   1.000  Al
  Al4      1.0000 0.50106  0.50000  0.49582  Biso   1.000  Al
  C1       1.0000 0.12495  0.89089  0.62681  Biso   1.000  C 
  C2       1.0000 0.24460  0.79146  0.68786  Biso   1.000  C 
  C3       1.0000 0.19176  0.22611  0.38959  Biso   1.000  C 
  C4       1.0000 0.62495  0.60911  0.62678  Biso   1.000  C 
  C5       1.0000 0.68823  0.68172  0.56855  Biso   1.000  C 
  C6       1.0000 0.18824  0.81828  0.56855  Biso   1.000  C 
  C7       1.0000 0.80404  0.22184  0.61581  Biso   1.000  C 
  C8       1.0000 0.75068  0.20585  0.32054  Biso   1.000  C 
  C9       1.0000 0.75067  0.79415  0.32054  Biso   1.000  C 
  C10      1.0000 0.69179  0.27389  0.38955  Biso   1.000  C 
  C11      1.0000 0.37345  0.60742  0.36808  Biso   1.000  C 
  C12      1.0000 0.30771  0.68000  0.43595  Biso   1.000  C 
  C13      1.0000 0.69177  0.72612  0.38956  Biso   1.000  C 
  C14      1.0000 0.12495  0.10910  0.62683  Biso   1.000  C 
  C15      1.0000 0.25066  0.29415  0.32056  Biso   1.000  C 
  C16      1.0000 0.30404  0.72184  0.61580  Biso   1.000  C 
  C17      1.0000 0.87345  0.10742  0.36810  Biso   1.000  C 
  C18      1.0000 0.18823  0.18172  0.56858  Biso   1.000  C 
  C19      1.0000 0.74460  0.29147  0.68785  Biso   1.000  C 
  C20      1.0000 0.74459  0.70854  0.68787  Biso   1.000  C 
  C21      1.0000 0.30404  0.27817  0.61581  Biso   1.000  C 
  C22      1.0000 0.68825  0.31829  0.56854  Biso   1.000  C 
  C23      1.0000 0.62495  0.39090  0.62678  Biso   1.000  C 
  C24      1.0000 0.24459  0.20854  0.68787  Biso   1.000  C 
  C25      1.0000 0.30771  0.32000  0.43596  Biso   1.000  C 
  C26      1.0000 0.87344  0.89258  0.36810  Biso   1.000  C 
  C27      1.0000 0.80771  0.82000  0.43597  Biso   1.000  C 
  C28      1.0000 0.80403  0.77816  0.61582  Biso   1.000  C 
  C29      1.0000 0.37345  0.39257  0.36808  Biso   1.000  C 
  C30      1.0000 0.25067  0.70585  0.32054  Biso   1.000  C 
  C31      1.0000 0.19177  0.77389  0.38956  Biso   1.000  C 
  C32      1.0000 0.80772  0.18000  0.43597  Biso   1.000  C 
  H1       1.0000 0.85369  0.00003  0.88187  Biso   1.000  H 
  H2       1.0000 0.35369  0.50001  0.88183  Biso   1.000  H 
  H3       1.0000 0.68761  0.37225  0.93710  Biso   1.000  H 
  H4       1.0000 0.34822  0.29995  0.70317  Biso   1.000  H 
  H5       1.0000 0.14635  0.00001  0.10490  Biso   1.000  H 
  H6       1.0000 0.84823  0.20006  0.70317  Biso   1.000  H 
  H7       1.0000 0.27910  0.80572  0.95191  Biso   1.000  H 
  H8       1.0000 0.14435  0.20533  0.30830  Biso   1.000  H 
  H9       1.0000 0.27909  0.19429  0.95194  Biso   1.000  H 
  H10      1.0000 0.64636  0.50000  0.10486  Biso   1.000  H 
  H11      1.0000 0.18760  0.12777  0.93714  Biso   1.000  H 
  H12      1.0000 0.84821  0.79994  0.70319  Biso   1.000  H 
  H13      1.0000 0.64437  0.29467  0.30826  Biso   1.000  H 
  H14      1.0000 0.64435  0.70533  0.30827  Biso   1.000  H 
  H15      1.0000 0.25231  0.67161  0.18299  Biso   1.000  H 
  H16      1.0000 0.25230  0.32839  0.18301  Biso   1.000  H 
  H17      1.0000 0.18761  0.87224  0.93711  Biso   1.000  H 
  H18      1.0000 0.14436  0.79467  0.30827  Biso   1.000  H 
  H19      1.0000 0.75232  0.17160  0.18299  Biso   1.000  H 
  H20      1.0000 0.34823  0.70006  0.70316  Biso   1.000  H 
  H21      1.0000 0.77909  0.30573  0.95193  Biso   1.000  H 
  H22      1.0000 0.75231  0.82840  0.18299  Biso   1.000  H 
  H23      1.0000 0.68760  0.62776  0.93712  Biso   1.000  H 
  H24      1.0000 0.77908  0.69427  0.95194  Biso   1.000  H 
  N1       1.0000 0.74578  0.33107  0.86217  Biso   1.000  N 
  N2       1.0000 0.74576  0.66893  0.86219  Biso   1.000  N 
  N3       1.0000 0.24578  0.16894  0.86219  Biso   1.000  N 
  N4       1.0000 0.24579  0.83107  0.86217  Biso   1.000  N 
  O1       1.0000 0.10003  0.08011  0.48159  Biso   1.000  O 
  O2       1.0000 0.90156  0.07903  0.50857  Biso   1.000  O 
  O3       1.0000 0.93294  0.00000  0.80921  Biso   1.000  O 
  O4       1.0000 0.89722  0.92063  0.17503  Biso   1.000  O 
  O5       1.0000 0.56705  0.50000  0.18055  Biso   1.000  O 
  O6       1.0000 0.09881  0.92105  0.82012  Biso   1.000  O 
  O7       1.0000 0.06705  0.99999  0.18059  Biso   1.000  O 
  O8       1.0000 0.60003  0.58012  0.48155  Biso   1.000  O 
  O9       1.0000 0.10003  0.91988  0.48158  Biso   1.000  O 
  O10      1.0000 0.40156  0.42096  0.50854  Biso   1.000  O 
  O11      1.0000 0.90156  0.92096  0.50857  Biso   1.000  O 
  O12      1.0000 0.89721  0.07936  0.17504  Biso   1.000  O 
  O13      1.0000 0.60003  0.41988  0.48154  Biso   1.000  O 
  O14      1.0000 0.39722  0.42063  0.17501  Biso   1.000  O 
  O15      1.0000 0.09881  0.07895  0.82014  Biso   1.000  O 
  O16      1.0000 0.39722  0.57936  0.17501  Biso   1.000  O 
  O17      1.0000 0.40156  0.57903  0.50853  Biso   1.000  O 
  O18      1.0000 0.43294  0.50000  0.80918  Biso   1.000  O 
  O19      1.0000 0.59881  0.57895  0.82011  Biso   1.000  O 
  O20      1.0000 0.59881  0.42105  0.82010  Biso   1.000  O 
