data_image0
_cell_length_a       13.9606
_cell_length_b       17.2402
_cell_length_c       6.71075
_cell_angle_alpha    90.0014
_cell_angle_beta     62.7456
_cell_angle_gamma    90.0011

_symmetry_space_group_name_H-M    "P 1"
_symmetry_int_tables_number       1

loop_
  _symmetry_equiv_pos_as_xyz
  'x, y, z'

loop_
  _atom_site_label
  _atom_site_occupancy
  _atom_site_fract_x
  _atom_site_fract_y
  _atom_site_fract_z
  _atom_site_thermal_displace_type
  _atom_site_B_iso_or_equiv
  _atom_site_type_symbol
  Al1      1.0000 0.99766  0.99999  0.99727  Biso   1.000  Al
  Al2      1.0000 0.49764  0.49999  0.99727  Biso   1.000  Al
  Al3      1.0000 0.00098  1.00000  0.49598  Biso   1.000  Al
  Al4      1.0000 0.50099  0.50000  0.49595  Biso   1.000  Al
  C1       1.0000 0.12384  0.89045  0.62814  Biso   1.000  C 
  C2       1.0000 0.24384  0.79155  0.68868  Biso   1.000  C 
  C3       1.0000 0.19232  0.22646  0.38900  Biso   1.000  C 
  C4       1.0000 0.62385  0.60954  0.62813  Biso   1.000  C 
  C5       1.0000 0.68774  0.68196  0.56917  Biso   1.000  C 
  C6       1.0000 0.18774  0.81804  0.56917  Biso   1.000  C 
  C7       1.0000 0.80402  0.22220  0.61573  Biso   1.000  C 
  C8       1.0000 0.75190  0.20575  0.31917  Biso   1.000  C 
  C9       1.0000 0.75189  0.79424  0.31917  Biso   1.000  C 
  C10      1.0000 0.69233  0.27353  0.38896  Biso   1.000  C 
  C11      1.0000 0.37486  0.60785  0.36632  Biso   1.000  C 
  C12      1.0000 0.30867  0.68025  0.43476  Biso   1.000  C 
  C13      1.0000 0.69231  0.72647  0.38898  Biso   1.000  C 
  C14      1.0000 0.12385  0.10954  0.62816  Biso   1.000  C 
  C15      1.0000 0.25189  0.29424  0.31918  Biso   1.000  C 
  C16      1.0000 0.30401  0.72219  0.61572  Biso   1.000  C 
  C17      1.0000 0.87486  0.10785  0.36634  Biso   1.000  C 
  C18      1.0000 0.18774  0.18196  0.56920  Biso   1.000  C 
  C19      1.0000 0.74385  0.29156  0.68867  Biso   1.000  C 
  C20      1.0000 0.74385  0.70845  0.68868  Biso   1.000  C 
  C21      1.0000 0.30401  0.27781  0.61573  Biso   1.000  C 
  C22      1.0000 0.68775  0.31804  0.56916  Biso   1.000  C 
  C23      1.0000 0.62385  0.39046  0.62811  Biso   1.000  C 
  C24      1.0000 0.24384  0.20846  0.68869  Biso   1.000  C 
  C25      1.0000 0.30867  0.31975  0.43476  Biso   1.000  C 
  C26      1.0000 0.87486  0.89215  0.36632  Biso   1.000  C 
  C27      1.0000 0.80867  0.81974  0.43477  Biso   1.000  C 
  C28      1.0000 0.80401  0.77781  0.61573  Biso   1.000  C 
  C29      1.0000 0.37485  0.39215  0.36631  Biso   1.000  C 
  C30      1.0000 0.25189  0.70575  0.31917  Biso   1.000  C 
  C31      1.0000 0.19232  0.77353  0.38897  Biso   1.000  C 
  C32      1.0000 0.80868  0.18026  0.43477  Biso   1.000  C 
  H1       1.0000 0.85617  0.00004  0.87993  Biso   1.000  H 
  H2       1.0000 0.35616  0.50002  0.87989  Biso   1.000  H 
  H3       1.0000 0.68603  0.37225  0.93837  Biso   1.000  H 
  H4       1.0000 0.34788  0.29931  0.70350  Biso   1.000  H 
  H5       1.0000 0.14395  0.00001  0.10828  Biso   1.000  H 
  H6       1.0000 0.84789  0.20072  0.70352  Biso   1.000  H 
  H7       1.0000 0.27770  0.80645  0.95357  Biso   1.000  H 
  H8       1.0000 0.14522  0.20606  0.30728  Biso   1.000  H 
  H9       1.0000 0.27770  0.19356  0.95359  Biso   1.000  H 
  H10      1.0000 0.64395  0.50001  0.10822  Biso   1.000  H 
  H11      1.0000 0.18603  0.12777  0.93840  Biso   1.000  H 
  H12      1.0000 0.84788  0.79930  0.70350  Biso   1.000  H 
  H13      1.0000 0.64523  0.29392  0.30724  Biso   1.000  H 
  H14      1.0000 0.64522  0.70607  0.30726  Biso   1.000  H 
  H15      1.0000 0.25414  0.67138  0.18092  Biso   1.000  H 
  H16      1.0000 0.25414  0.32861  0.18094  Biso   1.000  H 
  H17      1.0000 0.18603  0.87223  0.93838  Biso   1.000  H 
  H18      1.0000 0.14522  0.79393  0.30726  Biso   1.000  H 
  H19      1.0000 0.75416  0.17137  0.18093  Biso   1.000  H 
  H20      1.0000 0.34789  0.70070  0.70350  Biso   1.000  H 
  H21      1.0000 0.77771  0.30646  0.95356  Biso   1.000  H 
  H22      1.0000 0.75414  0.82862  0.18094  Biso   1.000  H 
  H23      1.0000 0.68602  0.62776  0.93838  Biso   1.000  H 
  H24      1.0000 0.77769  0.69355  0.95358  Biso   1.000  H 
  N1       1.0000 0.74401  0.33133  0.86408  Biso   1.000  N 
  N2       1.0000 0.74400  0.66868  0.86408  Biso   1.000  N 
  N3       1.0000 0.24400  0.16869  0.86409  Biso   1.000  N 
  N4       1.0000 0.24400  0.83132  0.86407  Biso   1.000  N 
  O1       1.0000 0.09860  0.08060  0.48328  Biso   1.000  O 
  O2       1.0000 0.90295  0.07946  0.50686  Biso   1.000  O 
  O3       1.0000 0.93412  1.00000  0.80809  Biso   1.000  O 
  O4       1.0000 0.89890  0.92006  0.17304  Biso   1.000  O 
  O5       1.0000 0.56595  0.49999  0.18190  Biso   1.000  O 
  O6       1.0000 0.09766  0.92054  0.82150  Biso   1.000  O 
  O7       1.0000 0.06595  1.00000  0.18193  Biso   1.000  O 
  O8       1.0000 0.59859  0.58060  0.48325  Biso   1.000  O 
  O9       1.0000 0.09857  0.91938  0.48327  Biso   1.000  O 
  O10      1.0000 0.40293  0.42054  0.50684  Biso   1.000  O 
  O11      1.0000 0.90293  0.92055  0.50686  Biso   1.000  O 
  O12      1.0000 0.89889  0.07992  0.17307  Biso   1.000  O 
  O13      1.0000 0.59859  0.41939  0.48323  Biso   1.000  O 
  O14      1.0000 0.39889  0.42006  0.17303  Biso   1.000  O 
  O15      1.0000 0.09766  0.07946  0.82154  Biso   1.000  O 
  O16      1.0000 0.39888  0.57993  0.17305  Biso   1.000  O 
  O17      1.0000 0.40294  0.57946  0.50684  Biso   1.000  O 
  O18      1.0000 0.43410  0.50000  0.80808  Biso   1.000  O 
  O19      1.0000 0.59765  0.57946  0.82151  Biso   1.000  O 
  O20      1.0000 0.59765  0.42054  0.82149  Biso   1.000  O 
