data_image0
_cell_length_a       14.0554
_cell_length_b       17.1783
_cell_length_c       6.71031
_cell_angle_alpha    90.0008
_cell_angle_beta     62.8566
_cell_angle_gamma    90.0005

_symmetry_space_group_name_H-M    "P 1"
_symmetry_int_tables_number       1

loop_
  _symmetry_equiv_pos_as_xyz
  'x, y, z'

loop_
  _atom_site_label
  _atom_site_occupancy
  _atom_site_fract_x
  _atom_site_fract_y
  _atom_site_fract_z
  _atom_site_thermal_displace_type
  _atom_site_B_iso_or_equiv
  _atom_site_type_symbol
  Al1      1.0000 0.99786  1.00000  0.99701  Biso   1.000  Al
  Al2      1.0000 0.49786  0.50000  0.99701  Biso   1.000  Al
  Al3      1.0000 0.00103  0.99999  0.49588  Biso   1.000  Al
  Al4      1.0000 0.50103  0.50000  0.49586  Biso   1.000  Al
  C1       1.0000 0.12333  0.89020  0.62823  Biso   1.000  C 
  C2       1.0000 0.24332  0.79173  0.68910  Biso   1.000  C 
  C3       1.0000 0.19274  0.22683  0.38852  Biso   1.000  C 
  C4       1.0000 0.62333  0.60979  0.62822  Biso   1.000  C 
  C5       1.0000 0.68748  0.68211  0.56922  Biso   1.000  C 
  C6       1.0000 0.18749  0.81788  0.56921  Biso   1.000  C 
  C7       1.0000 0.80389  0.22252  0.61596  Biso   1.000  C 
  C8       1.0000 0.75273  0.20553  0.31849  Biso   1.000  C 
  C9       1.0000 0.75271  0.79447  0.31851  Biso   1.000  C 
  C10      1.0000 0.69276  0.27316  0.38849  Biso   1.000  C 
  C11      1.0000 0.37566  0.60808  0.36593  Biso   1.000  C 
  C12      1.0000 0.30922  0.68038  0.43446  Biso   1.000  C 
  C13      1.0000 0.69274  0.72684  0.38852  Biso   1.000  C 
  C14      1.0000 0.12333  0.10979  0.62824  Biso   1.000  C 
  C15      1.0000 0.25271  0.29446  0.31851  Biso   1.000  C 
  C16      1.0000 0.30389  0.72251  0.61595  Biso   1.000  C 
  C17      1.0000 0.87566  0.10808  0.36594  Biso   1.000  C 
  C18      1.0000 0.18749  0.18211  0.56921  Biso   1.000  C 
  C19      1.0000 0.74333  0.29174  0.68909  Biso   1.000  C 
  C20      1.0000 0.74332  0.70827  0.68911  Biso   1.000  C 
  C21      1.0000 0.30388  0.27749  0.61597  Biso   1.000  C 
  C22      1.0000 0.68750  0.31789  0.56919  Biso   1.000  C 
  C23      1.0000 0.62333  0.39021  0.62821  Biso   1.000  C 
  C24      1.0000 0.24331  0.20827  0.68911  Biso   1.000  C 
  C25      1.0000 0.30921  0.31962  0.43447  Biso   1.000  C 
  C26      1.0000 0.87565  0.89192  0.36594  Biso   1.000  C 
  C27      1.0000 0.80920  0.81962  0.43448  Biso   1.000  C 
  C28      1.0000 0.80388  0.77749  0.61597  Biso   1.000  C 
  C29      1.0000 0.37565  0.39192  0.36593  Biso   1.000  C 
  C30      1.0000 0.25272  0.70553  0.31849  Biso   1.000  C 
  C31      1.0000 0.19275  0.77316  0.38850  Biso   1.000  C 
  C32      1.0000 0.80922  0.18038  0.43447  Biso   1.000  C 
  H1       1.0000 0.85744  0.00004  0.87907  Biso   1.000  H 
  H2       1.0000 0.35744  0.50001  0.87905  Biso   1.000  H 
  H3       1.0000 0.68469  0.37230  0.93958  Biso   1.000  H 
  H4       1.0000 0.34761  0.29870  0.70394  Biso   1.000  H 
  H5       1.0000 0.14295  0.00001  0.10892  Biso   1.000  H 
  H6       1.0000 0.84762  0.20131  0.70394  Biso   1.000  H 
  H7       1.0000 0.27641  0.80689  0.95469  Biso   1.000  H 
  H8       1.0000 0.14587  0.20672  0.30652  Biso   1.000  H 
  H9       1.0000 0.27640  0.19312  0.95471  Biso   1.000  H 
  H10      1.0000 0.64295  0.50001  0.10890  Biso   1.000  H 
  H11      1.0000 0.18469  0.12771  0.93959  Biso   1.000  H 
  H12      1.0000 0.84761  0.79870  0.70395  Biso   1.000  H 
  H13      1.0000 0.64589  0.29327  0.30650  Biso   1.000  H 
  H14      1.0000 0.64586  0.70673  0.30652  Biso   1.000  H 
  H15      1.0000 0.25554  0.67100  0.17978  Biso   1.000  H 
  H16      1.0000 0.25553  0.32899  0.17980  Biso   1.000  H 
  H17      1.0000 0.18469  0.87230  0.93958  Biso   1.000  H 
  H18      1.0000 0.14588  0.79327  0.30651  Biso   1.000  H 
  H19      1.0000 0.75555  0.17100  0.17978  Biso   1.000  H 
  H20      1.0000 0.34762  0.70130  0.70393  Biso   1.000  H 
  H21      1.0000 0.77641  0.30689  0.95469  Biso   1.000  H 
  H22      1.0000 0.75553  0.82899  0.17980  Biso   1.000  H 
  H23      1.0000 0.68468  0.62771  0.93960  Biso   1.000  H 
  H24      1.0000 0.77639  0.69312  0.95472  Biso   1.000  H 
  N1       1.0000 0.74280  0.33167  0.86513  Biso   1.000  N 
  N2       1.0000 0.74278  0.66835  0.86516  Biso   1.000  N 
  N3       1.0000 0.24279  0.16835  0.86515  Biso   1.000  N 
  N4       1.0000 0.24280  0.83166  0.86514  Biso   1.000  N 
  O1       1.0000 0.09805  0.08089  0.48340  Biso   1.000  O 
  O2       1.0000 0.90373  0.07975  0.50648  Biso   1.000  O 
  O3       1.0000 0.93478  1.00000  0.80765  Biso   1.000  O 
  O4       1.0000 0.89978  0.91987  0.17257  Biso   1.000  O 
  O5       1.0000 0.56556  0.50000  0.18213  Biso   1.000  O 
  O6       1.0000 0.09703  0.92031  0.82171  Biso   1.000  O 
  O7       1.0000 0.06556  0.99999  0.18215  Biso   1.000  O 
  O8       1.0000 0.59805  0.58090  0.48339  Biso   1.000  O 
  O9       1.0000 0.09804  0.91909  0.48341  Biso   1.000  O 
  O10      1.0000 0.40373  0.42025  0.50645  Biso   1.000  O 
  O11      1.0000 0.90372  0.92025  0.50647  Biso   1.000  O 
  O12      1.0000 0.89978  0.08012  0.17260  Biso   1.000  O 
  O13      1.0000 0.59805  0.41910  0.48339  Biso   1.000  O 
  O14      1.0000 0.39978  0.41987  0.17257  Biso   1.000  O 
  O15      1.0000 0.09703  0.07968  0.82173  Biso   1.000  O 
  O16      1.0000 0.39978  0.58012  0.17257  Biso   1.000  O 
  O17      1.0000 0.40374  0.57975  0.50645  Biso   1.000  O 
  O18      1.0000 0.43478  0.50000  0.80763  Biso   1.000  O 
  O19      1.0000 0.59703  0.57968  0.82171  Biso   1.000  O 
  O20      1.0000 0.59703  0.42032  0.82170  Biso   1.000  O 
