data_image0
_cell_length_a       10.2176
_cell_length_b       19.2101
_cell_length_c       6.73752
_cell_angle_alpha    90.0009
_cell_angle_beta     49.4193
_cell_angle_gamma    90.0005

_symmetry_space_group_name_H-M    "P 1"
_symmetry_int_tables_number       1

loop_
  _symmetry_equiv_pos_as_xyz
  'x, y, z'

loop_
  _atom_site_label
  _atom_site_occupancy
  _atom_site_fract_x
  _atom_site_fract_y
  _atom_site_fract_z
  _atom_site_thermal_displace_type
  _atom_site_B_iso_or_equiv
  _atom_site_type_symbol
  Al1      1.0000 0.99434  1.00000  0.00205  Biso   1.000  Al
  Al2      1.0000 0.49434  0.50000  0.00206  Biso   1.000  Al
  Al3      1.0000 0.99469  0.99999  0.50355  Biso   1.000  Al
  Al4      1.0000 0.49469  0.50001  0.50355  Biso   1.000  Al
  C1       1.0000 0.16740  0.89638  0.58270  Biso   1.000  C 
  C2       1.0000 0.25768  0.78604  0.67610  Biso   1.000  C 
  C3       1.0000 0.19119  0.21705  0.38708  Biso   1.000  C 
  C4       1.0000 0.66740  0.60362  0.58272  Biso   1.000  C 
  C5       1.0000 0.70859  0.67859  0.54673  Biso   1.000  C 
  C6       1.0000 0.20859  0.82141  0.54672  Biso   1.000  C 
  C7       1.0000 0.78529  0.21341  0.63820  Biso   1.000  C 
  C8       1.0000 0.72203  0.21208  0.34776  Biso   1.000  C 
  C9       1.0000 0.72157  0.78801  0.34822  Biso   1.000  C 
  C10      1.0000 0.69120  0.28295  0.38707  Biso   1.000  C 
  C11      1.0000 0.31815  0.60179  0.42606  Biso   1.000  C 
  C12      1.0000 0.26961  0.67703  0.47635  Biso   1.000  C 
  C13      1.0000 0.69073  0.71714  0.38753  Biso   1.000  C 
  C14      1.0000 0.16771  0.10353  0.58244  Biso   1.000  C 
  C15      1.0000 0.22203  0.28792  0.34775  Biso   1.000  C 
  C16      1.0000 0.28486  0.71332  0.63860  Biso   1.000  C 
  C17      1.0000 0.81839  0.10186  0.42588  Biso   1.000  C 
  C18      1.0000 0.20906  0.17849  0.54627  Biso   1.000  C 
  C19      1.0000 0.75820  0.28613  0.67558  Biso   1.000  C 
  C20      1.0000 0.75769  0.71397  0.67610  Biso   1.000  C 
  C21      1.0000 0.28529  0.28659  0.63820  Biso   1.000  C 
  C22      1.0000 0.70906  0.32151  0.54627  Biso   1.000  C 
  C23      1.0000 0.66772  0.39647  0.58244  Biso   1.000  C 
  C24      1.0000 0.25819  0.21387  0.67559  Biso   1.000  C 
  C25      1.0000 0.27000  0.32288  0.47597  Biso   1.000  C 
  C26      1.0000 0.81814  0.89821  0.42605  Biso   1.000  C 
  C27      1.0000 0.76960  0.82297  0.47634  Biso   1.000  C 
  C28      1.0000 0.78487  0.78669  0.63859  Biso   1.000  C 
  C29      1.0000 0.31840  0.39814  0.42588  Biso   1.000  C 
  C30      1.0000 0.22157  0.71199  0.34822  Biso   1.000  C 
  C31      1.0000 0.19073  0.78286  0.38753  Biso   1.000  C 
  C32      1.0000 0.77000  0.17712  0.47597  Biso   1.000  C 
  H1       1.0000 0.76514  0.00011  0.97916  Biso   1.000  H 
  H2       1.0000 0.26514  0.49986  0.97916  Biso   1.000  H 
  H3       1.0000 0.75688  0.37067  0.86181  Biso   1.000  H 
  H4       1.0000 0.32195  0.31489  0.73565  Biso   1.000  H 
  H5       1.0000 0.22571  0.99996  0.02664  Biso   1.000  H 
  H6       1.0000 0.82194  0.18511  0.73564  Biso   1.000  H 
  H7       1.0000 0.34047  0.79370  0.88319  Biso   1.000  H 
  H8       1.0000 0.14843  0.18889  0.29818  Biso   1.000  H 
  H9       1.0000 0.34094  0.20621  0.88275  Biso   1.000  H 
  H10      1.0000 0.72572  0.50004  0.02665  Biso   1.000  H 
  H11      1.0000 0.25687  0.12934  0.86182  Biso   1.000  H 
  H12      1.0000 0.82157  0.81498  0.73599  Biso   1.000  H 
  H13      1.0000 0.64843  0.31111  0.29817  Biso   1.000  H 
  H14      1.0000 0.64797  0.68899  0.29861  Biso   1.000  H 
  H15      1.0000 0.20715  0.68284  0.22485  Biso   1.000  H 
  H16      1.0000 0.20762  0.31705  0.22436  Biso   1.000  H 
  H17      1.0000 0.25646  0.87058  0.86219  Biso   1.000  H 
  H18      1.0000 0.14798  0.81100  0.29859  Biso   1.000  H 
  H19      1.0000 0.70761  0.18295  0.22436  Biso   1.000  H 
  H20      1.0000 0.32156  0.68504  0.73602  Biso   1.000  H 
  H21      1.0000 0.84094  0.29379  0.88275  Biso   1.000  H 
  H22      1.0000 0.70715  0.81715  0.22485  Biso   1.000  H 
  H23      1.0000 0.75647  0.62944  0.86220  Biso   1.000  H 
  H24      1.0000 0.84048  0.70632  0.88319  Biso   1.000  H 
  N1       1.0000 0.78070  0.31884  0.82993  Biso   1.000  N 
  N2       1.0000 0.78011  0.68128  0.83055  Biso   1.000  N 
  N3       1.0000 0.28069  0.18116  0.82994  Biso   1.000  N 
  N4       1.0000 0.28011  0.81874  0.83055  Biso   1.000  N 
  O1       1.0000 0.14584  0.07406  0.43573  Biso   1.000  O 
  O2       1.0000 0.83999  0.07198  0.57152  Biso   1.000  O 
  O3       1.0000 0.88984  0.00002  0.85620  Biso   1.000  O 
  O4       1.0000 0.84110  0.92680  0.23451  Biso   1.000  O 
  O5       1.0000 0.60098  0.50003  0.14787  Biso   1.000  O 
  O6       1.0000 0.15205  0.92844  0.76472  Biso   1.000  O 
  O7       1.0000 0.10097  0.99997  0.14787  Biso   1.000  O 
  O8       1.0000 0.64560  0.57416  0.43593  Biso   1.000  O 
  O9       1.0000 0.14559  0.92584  0.43591  Biso   1.000  O 
  O10      1.0000 0.33999  0.42802  0.57153  Biso   1.000  O 
  O11      1.0000 0.83976  0.92812  0.57164  Biso   1.000  O 
  O12      1.0000 0.84124  0.07324  0.23446  Biso   1.000  O 
  O13      1.0000 0.64585  0.42593  0.43572  Biso   1.000  O 
  O14      1.0000 0.34125  0.42676  0.23445  Biso   1.000  O 
  O15      1.0000 0.15227  0.07150  0.76456  Biso   1.000  O 
  O16      1.0000 0.34110  0.57320  0.23452  Biso   1.000  O 
  O17      1.0000 0.33977  0.57188  0.57166  Biso   1.000  O 
  O18      1.0000 0.38985  0.49998  0.85621  Biso   1.000  O 
  O19      1.0000 0.65205  0.57156  0.76475  Biso   1.000  O 
  O20      1.0000 0.65228  0.42851  0.76456  Biso   1.000  O 
