data_image0
_cell_length_a       10.0244
_cell_length_b       19.2667
_cell_length_c       6.7471
_cell_angle_alpha    90.0089
_cell_angle_beta     48.2877
_cell_angle_gamma    90.0104

_symmetry_space_group_name_H-M    "P 1"
_symmetry_int_tables_number       1

loop_
  _symmetry_equiv_pos_as_xyz
  'x, y, z'

loop_
  _atom_site_label
  _atom_site_occupancy
  _atom_site_fract_x
  _atom_site_fract_y
  _atom_site_fract_z
  _atom_site_thermal_displace_type
  _atom_site_B_iso_or_equiv
  _atom_site_type_symbol
  Al1      1.0000 0.99319  0.99997  0.00324  Biso   1.000  Al
  Al2      1.0000 0.49312  0.49999  0.00316  Biso   1.000  Al
  Al3      1.0000 0.99388  0.99999  0.50433  Biso   1.000  Al
  Al4      1.0000 0.49375  0.49998  0.50432  Biso   1.000  Al
  C1       1.0000 0.17172  0.89671  0.57836  Biso   1.000  C 
  C2       1.0000 0.25685  0.78586  0.67758  Biso   1.000  C 
  C3       1.0000 0.19480  0.21633  0.38325  Biso   1.000  C 
  C4       1.0000 0.67177  0.60326  0.57829  Biso   1.000  C 
  C5       1.0000 0.71136  0.67827  0.54419  Biso   1.000  C 
  C6       1.0000 0.21135  0.82170  0.54424  Biso   1.000  C 
  C7       1.0000 0.78088  0.21317  0.64326  Biso   1.000  C 
  C8       1.0000 0.72323  0.21271  0.34629  Biso   1.000  C 
  C9       1.0000 0.72327  0.78723  0.34622  Biso   1.000  C 
  C10      1.0000 0.69473  0.28358  0.38322  Biso   1.000  C 
  C11      1.0000 0.31278  0.60182  0.43167  Biso   1.000  C 
  C12      1.0000 0.26693  0.67726  0.47925  Biso   1.000  C 
  C13      1.0000 0.69475  0.71636  0.38322  Biso   1.000  C 
  C14      1.0000 0.17187  0.10326  0.57832  Biso   1.000  C 
  C15      1.0000 0.22329  0.28720  0.34620  Biso   1.000  C 
  C16      1.0000 0.28081  0.71314  0.64333  Biso   1.000  C 
  C17      1.0000 0.81288  0.10182  0.43167  Biso   1.000  C 
  C18      1.0000 0.21144  0.17827  0.54420  Biso   1.000  C 
  C19      1.0000 0.75684  0.28589  0.67752  Biso   1.000  C 
  C20      1.0000 0.75682  0.71413  0.67757  Biso   1.000  C 
  C21      1.0000 0.28079  0.28687  0.64332  Biso   1.000  C 
  C22      1.0000 0.71133  0.32170  0.54418  Biso   1.000  C 
  C23      1.0000 0.67166  0.39670  0.57831  Biso   1.000  C 
  C24      1.0000 0.25686  0.21415  0.67759  Biso   1.000  C 
  C25      1.0000 0.26693  0.32271  0.47920  Biso   1.000  C 
  C26      1.0000 0.81286  0.89815  0.43160  Biso   1.000  C 
  C27      1.0000 0.76697  0.82271  0.47920  Biso   1.000  C 
  C28      1.0000 0.78081  0.78684  0.64330  Biso   1.000  C 
  C29      1.0000 0.31277  0.39816  0.43158  Biso   1.000  C 
  C30      1.0000 0.22324  0.71273  0.34628  Biso   1.000  C 
  C31      1.0000 0.19471  0.78360  0.38332  Biso   1.000  C 
  C32      1.0000 0.76699  0.17726  0.47924  Biso   1.000  C 
  H1       1.0000 0.75547  0.00033  0.98892  Biso   1.000  H 
  H2       1.0000 0.25539  0.50025  0.98899  Biso   1.000  H 
  H3       1.0000 0.76161  0.37030  0.85615  Biso   1.000  H 
  H4       1.0000 0.31411  0.31561  0.74444  Biso   1.000  H 
  H5       1.0000 0.23316  0.00008  0.01868  Biso   1.000  H 
  H6       1.0000 0.81426  0.18448  0.74435  Biso   1.000  H 
  H7       1.0000 0.34511  0.79324  0.87711  Biso   1.000  H 
  H8       1.0000 0.15463  0.18774  0.29140  Biso   1.000  H 
  H9       1.0000 0.34510  0.20683  0.87717  Biso   1.000  H 
  H10      1.0000 0.73312  0.50009  0.01867  Biso   1.000  H 
  H11      1.0000 0.26161  0.12980  0.85637  Biso   1.000  H 
  H12      1.0000 0.81417  0.81557  0.74441  Biso   1.000  H 
  H13      1.0000 0.65448  0.31211  0.29139  Biso   1.000  H 
  H14      1.0000 0.65455  0.68780  0.29137  Biso   1.000  H 
  H15      1.0000 0.20978  0.68393  0.22156  Biso   1.000  H 
  H16      1.0000 0.20985  0.31597  0.22144  Biso   1.000  H 
  H17      1.0000 0.26162  0.87025  0.85632  Biso   1.000  H 
  H18      1.0000 0.15453  0.81216  0.29148  Biso   1.000  H 
  H19      1.0000 0.70984  0.18388  0.22153  Biso   1.000  H 
  H20      1.0000 0.31415  0.68443  0.74445  Biso   1.000  H 
  H21      1.0000 0.84525  0.29331  0.87687  Biso   1.000  H 
  H22      1.0000 0.70986  0.81603  0.22144  Biso   1.000  H 
  H23      1.0000 0.76157  0.62975  0.85625  Biso   1.000  H 
  H24      1.0000 0.84517  0.70676  0.87699  Biso   1.000  H 
  N1       1.0000 0.77807  0.31807  0.83408  Biso   1.000  N 
  N2       1.0000 0.77798  0.68199  0.83422  Biso   1.000  N 
  N3       1.0000 0.27799  0.18203  0.83431  Biso   1.000  N 
  N4       1.0000 0.27802  0.81802  0.83422  Biso   1.000  N 
  O1       1.0000 0.15063  0.07376  0.43118  Biso   1.000  O 
  O2       1.0000 0.83373  0.07184  0.57772  Biso   1.000  O 
  O3       1.0000 0.88483  0.00000  0.86128  Biso   1.000  O 
  O4       1.0000 0.83485  0.92690  0.24121  Biso   1.000  O 
  O5       1.0000 0.60377  0.49999  0.14483  Biso   1.000  O 
  O6       1.0000 0.15685  0.92882  0.75955  Biso   1.000  O 
  O7       1.0000 0.10382  0.99997  0.14489  Biso   1.000  O 
  O8       1.0000 0.65046  0.57379  0.43121  Biso   1.000  O 
  O9       1.0000 0.15034  0.92614  0.43136  Biso   1.000  O 
  O10      1.0000 0.33349  0.42818  0.57776  Biso   1.000  O 
  O11      1.0000 0.83361  0.92818  0.57774  Biso   1.000  O 
  O12      1.0000 0.83477  0.07303  0.24140  Biso   1.000  O 
  O13      1.0000 0.65026  0.42614  0.43133  Biso   1.000  O 
  O14      1.0000 0.33481  0.42690  0.24115  Biso   1.000  O 
  O15      1.0000 0.15690  0.07119  0.75965  Biso   1.000  O 
  O16      1.0000 0.33474  0.57303  0.24133  Biso   1.000  O 
  O17      1.0000 0.33360  0.57184  0.57778  Biso   1.000  O 
  O18      1.0000 0.38475  0.50000  0.86121  Biso   1.000  O 
  O19      1.0000 0.65686  0.57117  0.75954  Biso   1.000  O 
  O20      1.0000 0.65681  0.42881  0.75947  Biso   1.000  O 
