data_image0
_cell_length_a       12.4022
_cell_length_b       18.2265
_cell_length_c       6.70068
_cell_angle_alpha    90.0027
_cell_angle_beta     58.9459
_cell_angle_gamma    90.0012

_symmetry_space_group_name_H-M    "P 1"
_symmetry_int_tables_number       1

loop_
  _symmetry_equiv_pos_as_xyz
  'x, y, z'

loop_
  _atom_site_label
  _atom_site_occupancy
  _atom_site_fract_x
  _atom_site_fract_y
  _atom_site_fract_z
  _atom_site_thermal_displace_type
  _atom_site_B_iso_or_equiv
  _atom_site_type_symbol
  Al1      1.0000 0.99494  0.99999  0.00070  Biso   1.000  Al
  Al2      1.0000 0.49495  0.50000  0.00090  Biso   1.000  Al
  Al3      1.0000 0.99711  0.00000  0.50063  Biso   1.000  Al
  Al4      1.0000 0.49704  0.50000  0.50093  Biso   1.000  Al
  C1       1.0000 0.13476  0.89399  0.61773  Biso   1.000  C 
  C2       1.0000 0.25319  0.79058  0.67886  Biso   1.000  C 
  C3       1.0000 0.18735  0.22187  0.39323  Biso   1.000  C 
  C4       1.0000 0.63475  0.60600  0.61793  Biso   1.000  C 
  C5       1.0000 0.69367  0.67945  0.56284  Biso   1.000  C 
  C6       1.0000 0.19368  0.82055  0.56275  Biso   1.000  C 
  C7       1.0000 0.80502  0.21932  0.61435  Biso   1.000  C 
  C8       1.0000 0.73924  0.20858  0.33116  Biso   1.000  C 
  C9       1.0000 0.73924  0.79140  0.33115  Biso   1.000  C 
  C10      1.0000 0.68730  0.27813  0.39333  Biso   1.000  C 
  C11      1.0000 0.35838  0.60494  0.38294  Biso   1.000  C 
  C12      1.0000 0.29873  0.67915  0.44460  Biso   1.000  C 
  C13      1.0000 0.68730  0.72185  0.39333  Biso   1.000  C 
  C14      1.0000 0.13478  0.10600  0.61773  Biso   1.000  C 
  C15      1.0000 0.23926  0.29143  0.33118  Biso   1.000  C 
  C16      1.0000 0.30498  0.71935  0.61452  Biso   1.000  C 
  C17      1.0000 0.85840  0.10493  0.38267  Biso   1.000  C 
  C18      1.0000 0.19371  0.17944  0.56271  Biso   1.000  C 
  C19      1.0000 0.75323  0.29054  0.67881  Biso   1.000  C 
  C20      1.0000 0.75322  0.70946  0.67882  Biso   1.000  C 
  C21      1.0000 0.30499  0.28065  0.61446  Biso   1.000  C 
  C22      1.0000 0.69366  0.32054  0.56283  Biso   1.000  C 
  C23      1.0000 0.63474  0.39399  0.61792  Biso   1.000  C 
  C24      1.0000 0.25322  0.20943  0.67879  Biso   1.000  C 
  C25      1.0000 0.29873  0.32085  0.44454  Biso   1.000  C 
  C26      1.0000 0.85841  0.89506  0.38264  Biso   1.000  C 
  C27      1.0000 0.79875  0.82084  0.44440  Biso   1.000  C 
  C28      1.0000 0.80502  0.78068  0.61435  Biso   1.000  C 
  C29      1.0000 0.35837  0.39507  0.38289  Biso   1.000  C 
  C30      1.0000 0.23926  0.70855  0.33124  Biso   1.000  C 
  C31      1.0000 0.18733  0.77811  0.39329  Biso   1.000  C 
  C32      1.0000 0.79875  0.17915  0.44442  Biso   1.000  C 
  H1       1.0000 0.82852  0.00014  0.90893  Biso   1.000  H 
  H2       1.0000 0.32850  0.50006  0.90922  Biso   1.000  H 
  H3       1.0000 0.70860  0.37275  0.91536  Biso   1.000  H 
  H4       1.0000 0.35111  0.30493  0.70001  Biso   1.000  H 
  H5       1.0000 0.16490  0.00005  0.08983  Biso   1.000  H 
  H6       1.0000 0.85118  0.19505  0.69982  Biso   1.000  H 
  H7       1.0000 0.29875  0.80207  0.93166  Biso   1.000  H 
  H8       1.0000 0.13746  0.19824  0.31417  Biso   1.000  H 
  H9       1.0000 0.29878  0.19795  0.93159  Biso   1.000  H 
  H10      1.0000 0.66488  0.50003  0.09012  Biso   1.000  H 
  H11      1.0000 0.20854  0.12721  0.91529  Biso   1.000  H 
  H12      1.0000 0.85117  0.80496  0.69983  Biso   1.000  H 
  H13      1.0000 0.63738  0.30176  0.31436  Biso   1.000  H 
  H14      1.0000 0.63739  0.69820  0.31434  Biso   1.000  H 
  H15      1.0000 0.23313  0.67599  0.20115  Biso   1.000  H 
  H16      1.0000 0.23314  0.32398  0.20110  Biso   1.000  H 
  H17      1.0000 0.20850  0.87281  0.91535  Biso   1.000  H 
  H18      1.0000 0.13743  0.80172  0.31423  Biso   1.000  H 
  H19      1.0000 0.73308  0.17604  0.20106  Biso   1.000  H 
  H20      1.0000 0.35111  0.69509  0.70007  Biso   1.000  H 
  H21      1.0000 0.79885  0.30201  0.93154  Biso   1.000  H 
  H22      1.0000 0.73309  0.82393  0.20105  Biso   1.000  H 
  H23      1.0000 0.70857  0.62727  0.91543  Biso   1.000  H 
  H24      1.0000 0.79881  0.69802  0.93160  Biso   1.000  H 
  N1       1.0000 0.76482  0.32826  0.84235  Biso   1.000  N 
  N2       1.0000 0.76480  0.67175  0.84240  Biso   1.000  N 
  N3       1.0000 0.26479  0.17169  0.84234  Biso   1.000  N 
  N4       1.0000 0.26474  0.82832  0.84243  Biso   1.000  N 
  O1       1.0000 0.10967  0.07687  0.47296  Biso   1.000  O 
  O2       1.0000 0.88377  0.07557  0.52609  Biso   1.000  O 
  O3       1.0000 0.91958  1.00000  0.82351  Biso   1.000  O 
  O4       1.0000 0.88144  0.92331  0.19034  Biso   1.000  O 
  O5       1.0000 0.57380  0.49999  0.17579  Biso   1.000  O 
  O6       1.0000 0.11127  0.92460  0.80893  Biso   1.000  O 
  O7       1.0000 0.07383  0.99999  0.17552  Biso   1.000  O 
  O8       1.0000 0.60964  0.57685  0.47321  Biso   1.000  O 
  O9       1.0000 0.10966  0.92311  0.47297  Biso   1.000  O 
  O10      1.0000 0.38369  0.42443  0.52639  Biso   1.000  O 
  O11      1.0000 0.88378  0.92442  0.52605  Biso   1.000  O 
  O12      1.0000 0.88143  0.07667  0.19037  Biso   1.000  O 
  O13      1.0000 0.60959  0.42312  0.47323  Biso   1.000  O 
  O14      1.0000 0.38145  0.42332  0.19057  Biso   1.000  O 
  O15      1.0000 0.11128  0.07540  0.80894  Biso   1.000  O 
  O16      1.0000 0.38143  0.57667  0.19065  Biso   1.000  O 
  O17      1.0000 0.38373  0.57559  0.52640  Biso   1.000  O 
  O18      1.0000 0.41957  0.50000  0.82379  Biso   1.000  O 
  O19      1.0000 0.61128  0.57541  0.80915  Biso   1.000  O 
  O20      1.0000 0.61129  0.42459  0.80911  Biso   1.000  O 
