data_image0
_cell_length_a       6.73141
_cell_length_b       17.8726
_cell_length_c       21.8759
_cell_angle_alpha    89.9984
_cell_angle_beta     98.0389
_cell_angle_gamma    89.9894

_symmetry_space_group_name_H-M    "P 1"
_symmetry_int_tables_number       1

loop_
  _symmetry_equiv_pos_as_xyz
  'x, y, z'

loop_
  _atom_site_label
  _atom_site_occupancy
  _atom_site_fract_x
  _atom_site_fract_y
  _atom_site_fract_z
  _atom_site_thermal_displace_type
  _atom_site_B_iso_or_equiv
  _atom_site_type_symbol
  C1       1.0000 0.83564  0.12954  0.59942  Biso   1.000  C 
  C2       1.0000 0.01961  0.13488  0.63921  Biso   1.000  C 
  C3       1.0000 0.14127  0.07967  0.61686  Biso   1.000  C 
  C4       1.0000 0.16448  0.22636  0.28186  Biso   1.000  C 
  C5       1.0000 0.21020  0.18438  0.32604  Biso   1.000  C 
  C6       1.0000 0.20995  0.31352  0.82599  Biso   1.000  C 
  C7       1.0000 0.16475  0.27136  0.78190  Biso   1.000  C 
  C8       1.0000 0.63857  0.91753  0.39800  Biso   1.000  C 
  C9       1.0000 0.14046  0.41817  0.11699  Biso   1.000  C 
  C10      1.0000 0.33563  0.62952  0.09943  Biso   1.000  C 
  C11      1.0000 0.51961  0.63485  0.13923  Biso   1.000  C 
  C12      1.0000 0.64125  0.57964  0.11687  Biso   1.000  C 
  C13      1.0000 0.83541  0.36793  0.09909  Biso   1.000  C 
  C14      1.0000 0.66436  0.72638  0.78188  Biso   1.000  C 
  C15      1.0000 0.71000  0.81352  0.32598  Biso   1.000  C 
  C16      1.0000 0.66484  0.77135  0.28190  Biso   1.000  C 
  C17      1.0000 0.01899  0.36274  0.13910  Biso   1.000  C 
  C18      1.0000 0.57004  0.68313  0.18934  Biso   1.000  C 
  C19      1.0000 0.71003  0.68438  0.82605  Biso   1.000  C 
  C20      1.0000 0.64045  0.91819  0.61701  Biso   1.000  C 
  C21      1.0000 0.44447  0.13034  0.41586  Biso   1.000  C 
  C22      1.0000 0.13906  0.08039  0.39803  Biso   1.000  C 
  C23      1.0000 0.26062  0.13587  0.37601  Biso   1.000  C 
  C24      1.0000 0.51897  0.86277  0.63912  Biso   1.000  C 
  C25      1.0000 0.33539  0.86796  0.59911  Biso   1.000  C 
  C26      1.0000 0.11466  0.27240  0.23338  Biso   1.000  C 
  C27      1.0000 0.94436  0.63034  0.91585  Biso   1.000  C 
  C28      1.0000 0.11529  0.22517  0.73350  Biso   1.000  C 
  C29      1.0000 0.07001  0.18316  0.68933  Biso   1.000  C 
  C30      1.0000 0.76049  0.63587  0.87602  Biso   1.000  C 
  C31      1.0000 0.06926  0.31439  0.18918  Biso   1.000  C 
  C32      1.0000 0.13855  0.41753  0.89800  Biso   1.000  C 
  C33      1.0000 0.26024  0.36214  0.87589  Biso   1.000  C 
  C34      1.0000 0.56924  0.81441  0.68920  Biso   1.000  C 
  C35      1.0000 0.61460  0.77242  0.73339  Biso   1.000  C 
  C36      1.0000 0.94429  0.86775  0.41562  Biso   1.000  C 
  C37      1.0000 0.76027  0.86214  0.37588  Biso   1.000  C 
  C38      1.0000 0.44425  0.36774  0.91563  Biso   1.000  C 
  C39      1.0000 0.61537  0.72515  0.23351  Biso   1.000  C 
  C40      1.0000 0.63896  0.58039  0.89804  Biso   1.000  C 
  Co1      1.0000 0.13992  0.98061  0.50722  Biso   1.000  Co
  Co2      1.0000 0.63989  0.48060  0.00722  Biso   1.000  Co
  Co3      1.0000 0.13984  0.51718  0.00734  Biso   1.000  Co
  Co4      1.0000 0.63988  0.01717  0.50734  Biso   1.000  Co
  H1       1.0000 0.69817  0.33621  0.09969  Biso   1.000  H 
  H2       1.0000 0.48478  0.56520  0.88128  Biso   1.000  H 
  H3       1.0000 0.48424  0.93266  0.38135  Biso   1.000  H 
  H4       1.0000 0.58172  0.33616  0.91498  Biso   1.000  H 
  H5       1.0000 0.98423  0.43265  0.88135  Biso   1.000  H 
  H6       1.0000 0.29554  0.06445  0.63348  Biso   1.000  H 
  H7       1.0000 0.69819  0.16108  0.60022  Biso   1.000  H 
  H8       1.0000 0.08166  0.66204  0.91529  Biso   1.000  H 
  H9       1.0000 0.98488  0.06521  0.38126  Biso   1.000  H 
  H10      1.0000 0.19813  0.83626  0.59971  Biso   1.000  H 
  H11      1.0000 0.79438  0.93361  0.63387  Biso   1.000  H 
  H12      1.0000 0.19820  0.66107  0.10024  Biso   1.000  H 
  H13      1.0000 0.79552  0.56442  0.13349  Biso   1.000  H 
  H14      1.0000 0.58180  0.16201  0.41531  Biso   1.000  H 
  H15      1.0000 0.08176  0.83618  0.41497  Biso   1.000  H 
  H16      1.0000 0.29439  0.43359  0.13385  Biso   1.000  H 
  N1       1.0000 0.74324  0.54531  0.94676  Biso   1.000  N 
  N2       1.0000 0.93139  0.57617  0.95784  Biso   1.000  N 
  N3       1.0000 0.43122  0.42184  0.95765  Biso   1.000  N 
  N4       1.0000 0.24290  0.45260  0.94670  Biso   1.000  N 
  N5       1.0000 0.24328  0.04532  0.44675  Biso   1.000  N 
  N6       1.0000 0.43144  0.07618  0.45785  Biso   1.000  N 
  N7       1.0000 0.74292  0.95260  0.44670  Biso   1.000  N 
  N8       1.0000 0.93125  0.92185  0.45765  Biso   1.000  N 
  N9       1.0000 0.53695  0.54493  0.06796  Biso   1.000  N 
  N10      1.0000 0.84856  0.42181  0.05688  Biso   1.000  N 
  N11      1.0000 0.84871  0.07576  0.55711  Biso   1.000  N 
  N12      1.0000 0.03649  0.45284  0.06800  Biso   1.000  N 
  N13      1.0000 0.03698  0.04495  0.56796  Biso   1.000  N 
  N14      1.0000 0.34870  0.57575  0.05711  Biso   1.000  N 
  N15      1.0000 0.53650  0.95286  0.56801  Biso   1.000  N 
  N16      1.0000 0.34857  0.92183  0.55689  Biso   1.000  N 
