data_image0
_cell_length_a       6.73733
_cell_length_b       10.6482
_cell_length_c       26.264
_cell_angle_alpha    89.9895
_cell_angle_beta     101.181
_cell_angle_gamma    90.0619

_symmetry_space_group_name_H-M    "P 1"
_symmetry_int_tables_number       1

loop_
  _symmetry_equiv_pos_as_xyz
  'x, y, z'

loop_
  _atom_site_label
  _atom_site_occupancy
  _atom_site_fract_x
  _atom_site_fract_y
  _atom_site_fract_z
  _atom_site_thermal_displace_type
  _atom_site_B_iso_or_equiv
  _atom_site_type_symbol
  C1       1.0000 0.84473  0.18741  0.59660  Biso   1.000  C 
  C2       1.0000 0.43555  0.18727  0.41829  Biso   1.000  C 
  C3       1.0000 0.25489  0.17176  0.38123  Biso   1.000  C 
  C4       1.0000 0.52495  0.82591  0.63367  Biso   1.000  C 
  C5       1.0000 0.11545  0.26182  0.23191  Biso   1.000  C 
  C6       1.0000 0.93556  0.68727  0.91829  Biso   1.000  C 
  C7       1.0000 0.11516  0.23548  0.73206  Biso   1.000  C 
  C8       1.0000 0.07103  0.21131  0.68552  Biso   1.000  C 
  C9       1.0000 0.75490  0.67176  0.88123  Biso   1.000  C 
  C10      1.0000 0.34446  0.81052  0.59656  Biso   1.000  C 
  C11      1.0000 0.13320  0.40239  0.90688  Biso   1.000  C 
  C12      1.0000 0.25446  0.32588  0.88135  Biso   1.000  C 
  C13      1.0000 0.57116  0.78617  0.68539  Biso   1.000  C 
  C14      1.0000 0.61545  0.76182  0.73191  Biso   1.000  C 
  C15      1.0000 0.93507  0.81059  0.41842  Biso   1.000  C 
  C16      1.0000 0.63347  0.59536  0.90684  Biso   1.000  C 
  C17      1.0000 0.61515  0.73548  0.23206  Biso   1.000  C 
  C18      1.0000 0.07116  0.28616  0.18539  Biso   1.000  C 
  C19      1.0000 0.13346  0.09536  0.40683  Biso   1.000  C 
  C20      1.0000 0.66305  0.76170  0.28312  Biso   1.000  C 
  C21      1.0000 0.75445  0.82589  0.38135  Biso   1.000  C 
  C22      1.0000 0.70822  0.71130  0.82948  Biso   1.000  C 
  C23      1.0000 0.43508  0.31059  0.91842  Biso   1.000  C 
  C24      1.0000 0.64660  0.90239  0.60816  Biso   1.000  C 
  C25      1.0000 0.02500  0.17185  0.63376  Biso   1.000  C 
  C26      1.0000 0.20822  0.21130  0.32948  Biso   1.000  C 
  C27      1.0000 0.20774  0.28608  0.82963  Biso   1.000  C 
  C28      1.0000 0.16306  0.26170  0.78312  Biso   1.000  C 
  C29      1.0000 0.63320  0.90240  0.40688  Biso   1.000  C 
  C30      1.0000 0.14660  0.40238  0.10816  Biso   1.000  C 
  C31      1.0000 0.14657  0.09552  0.60824  Biso   1.000  C 
  C32      1.0000 0.52500  0.67184  0.13376  Biso   1.000  C 
  C33      1.0000 0.64657  0.59550  0.10824  Biso   1.000  C 
  C34      1.0000 0.84446  0.31051  0.09655  Biso   1.000  C 
  C35      1.0000 0.66347  0.73557  0.78297  Biso   1.000  C 
  C36      1.0000 0.70773  0.78608  0.32964  Biso   1.000  C 
  C37      1.0000 0.34474  0.68740  0.09660  Biso   1.000  C 
  C38      1.0000 0.57103  0.71130  0.18552  Biso   1.000  C 
  C39      1.0000 0.02496  0.32590  0.13367  Biso   1.000  C 
  C40      1.0000 0.16347  0.23557  0.28297  Biso   1.000  C 
  Co1      1.0000 0.64028  0.03179  0.50749  Biso   1.000  Co
  Co2      1.0000 0.14029  0.53179  0.00749  Biso   1.000  Co
  Co3      1.0000 0.64014  0.46644  0.00754  Biso   1.000  Co
  Co4      1.0000 0.14013  0.96644  0.50754  Biso   1.000  Co
  H1       1.0000 0.98149  0.06050  0.39244  Biso   1.000  H 
  H2       1.0000 0.29855  0.43718  0.12262  Biso   1.000  H 
  H3       1.0000 0.07206  0.76065  0.41484  Biso   1.000  H 
  H4       1.0000 0.57260  0.23726  0.41465  Biso   1.000  H 
  H5       1.0000 0.79836  0.56067  0.12273  Biso   1.000  H 
  H6       1.0000 0.79854  0.93719  0.62263  Biso   1.000  H 
  H7       1.0000 0.20731  0.76049  0.60007  Biso   1.000  H 
  H8       1.0000 0.20772  0.73738  0.10013  Biso   1.000  H 
  H9       1.0000 0.57207  0.26064  0.91484  Biso   1.000  H 
  H10      1.0000 0.29836  0.06069  0.62273  Biso   1.000  H 
  H11      1.0000 0.70771  0.23739  0.60012  Biso   1.000  H 
  H12      1.0000 0.48133  0.93715  0.39245  Biso   1.000  H 
  H13      1.0000 0.48151  0.56050  0.89244  Biso   1.000  H 
  H14      1.0000 0.70731  0.26048  0.10007  Biso   1.000  H 
  H15      1.0000 0.07261  0.73726  0.91465  Biso   1.000  H 
  H16      1.0000 0.98133  0.43714  0.89245  Biso   1.000  H 
  N1       1.0000 0.73569  0.93122  0.45468  Biso   1.000  N 
  N2       1.0000 0.35809  0.62362  0.05304  Biso   1.000  N 
  N3       1.0000 0.04451  0.06698  0.56037  Biso   1.000  N 
  N4       1.0000 0.04441  0.43117  0.06034  Biso   1.000  N 
  N5       1.0000 0.85808  0.12363  0.55304  Biso   1.000  N 
  N6       1.0000 0.54452  0.56697  0.06037  Biso   1.000  N 
  N7       1.0000 0.85777  0.37453  0.05303  Biso   1.000  N 
  N8       1.0000 0.23570  0.43122  0.95468  Biso   1.000  N 
  N9       1.0000 0.42249  0.12344  0.46187  Biso   1.000  N 
  N10      1.0000 0.42215  0.37465  0.96195  Biso   1.000  N 
  N11      1.0000 0.92251  0.62344  0.96187  Biso   1.000  N 
  N12      1.0000 0.73590  0.56680  0.95466  Biso   1.000  N 
  N13      1.0000 0.54440  0.93118  0.56034  Biso   1.000  N 
  N14      1.0000 0.92215  0.87465  0.46195  Biso   1.000  N 
  N15      1.0000 0.23589  0.06680  0.45466  Biso   1.000  N 
  N16      1.0000 0.35776  0.87454  0.55303  Biso   1.000  N 
