data_image0
_cell_length_a       6.89849
_cell_length_b       7.94783
_cell_length_c       27.1284
_cell_angle_alpha    89.9886
_cell_angle_beta     103.766
_cell_angle_gamma    89.9905

_symmetry_space_group_name_H-M    "P 1"
_symmetry_int_tables_number       1

loop_
  _symmetry_equiv_pos_as_xyz
  'x, y, z'

loop_
  _atom_site_label
  _atom_site_occupancy
  _atom_site_fract_x
  _atom_site_fract_y
  _atom_site_fract_z
  _atom_site_thermal_displace_type
  _atom_site_B_iso_or_equiv
  _atom_site_type_symbol
  C1       1.0000 0.84871  0.23511  0.59643  Biso   1.000  C 
  C2       1.0000 0.66166  0.74985  0.28307  Biso   1.000  C 
  C3       1.0000 0.43109  0.23500  0.41846  Biso   1.000  C 
  C4       1.0000 0.24899  0.21350  0.38197  Biso   1.000  C 
  C5       1.0000 0.11722  0.25032  0.23195  Biso   1.000  C 
  C6       1.0000 0.93110  0.73501  0.91846  Biso   1.000  C 
  C7       1.0000 0.11701  0.24736  0.73197  Biso   1.000  C 
  C8       1.0000 0.07529  0.24393  0.68537  Biso   1.000  C 
  C9       1.0000 0.74900  0.71350  0.88197  Biso   1.000  C 
  C10      1.0000 0.53055  0.78460  0.63302  Biso   1.000  C 
  C11      1.0000 0.12795  0.37236  0.90854  Biso   1.000  C 
  C12      1.0000 0.24916  0.28434  0.88198  Biso   1.000  C 
  C13      1.0000 0.57553  0.75376  0.68535  Biso   1.000  C 
  C14      1.0000 0.61722  0.75033  0.73195  Biso   1.000  C 
  C15      1.0000 0.93128  0.76288  0.41847  Biso   1.000  C 
  C16      1.0000 0.07553  0.25375  0.18535  Biso   1.000  C 
  C17      1.0000 0.61702  0.74736  0.23197  Biso   1.000  C 
  C18      1.0000 0.34882  0.76275  0.59642  Biso   1.000  C 
  C19      1.0000 0.12787  0.12542  0.40855  Biso   1.000  C 
  C20      1.0000 0.57529  0.74393  0.18537  Biso   1.000  C 
  C21      1.0000 0.62788  0.62543  0.90855  Biso   1.000  C 
  C22      1.0000 0.70357  0.74430  0.82965  Biso   1.000  C 
  C23      1.0000 0.74915  0.78433  0.38198  Biso   1.000  C 
  C24      1.0000 0.43128  0.26288  0.91847  Biso   1.000  C 
  C25      1.0000 0.65193  0.87281  0.60654  Biso   1.000  C 
  C26      1.0000 0.20355  0.24430  0.32964  Biso   1.000  C 
  C27      1.0000 0.20361  0.25345  0.82967  Biso   1.000  C 
  C28      1.0000 0.16165  0.24986  0.78307  Biso   1.000  C 
  C29      1.0000 0.62795  0.87236  0.40854  Biso   1.000  C 
  C30      1.0000 0.15193  0.37281  0.10654  Biso   1.000  C 
  C31      1.0000 0.03043  0.21319  0.63304  Biso   1.000  C 
  C32      1.0000 0.53043  0.71319  0.13304  Biso   1.000  C 
  C33      1.0000 0.65184  0.62494  0.10658  Biso   1.000  C 
  C34      1.0000 0.84882  0.26275  0.09642  Biso   1.000  C 
  C35      1.0000 0.66170  0.74778  0.78304  Biso   1.000  C 
  C36      1.0000 0.70361  0.75345  0.32967  Biso   1.000  C 
  C37      1.0000 0.16170  0.24777  0.28304  Biso   1.000  C 
  C38      1.0000 0.34872  0.73511  0.09643  Biso   1.000  C 
  C39      1.0000 0.03056  0.28460  0.13302  Biso   1.000  C 
  C40      1.0000 0.15183  0.12493  0.60658  Biso   1.000  C 
  Co1      1.0000 0.64029  0.03581  0.50749  Biso   1.000  Co
  Co2      1.0000 0.14029  0.53582  0.00748  Biso   1.000  Co
  Co3      1.0000 0.64020  0.46195  0.00749  Biso   1.000  Co
  Co4      1.0000 0.14019  0.96195  0.50749  Biso   1.000  Co
  H1       1.0000 0.21134  0.79352  0.10068  Biso   1.000  H 
  H2       1.0000 0.97499  0.08330  0.39469  Biso   1.000  H 
  H3       1.0000 0.30466  0.41517  0.12051  Biso   1.000  H 
  H4       1.0000 0.06864  0.70473  0.41411  Biso   1.000  H 
  H5       1.0000 0.56841  0.29318  0.41408  Biso   1.000  H 
  H6       1.0000 0.21146  0.70433  0.60067  Biso   1.000  H 
  H7       1.0000 0.80466  0.91517  0.62051  Biso   1.000  H 
  H8       1.0000 0.80456  0.58256  0.12056  Biso   1.000  H 
  H9       1.0000 0.47504  0.91447  0.39469  Biso   1.000  H 
  H10      1.0000 0.71133  0.29352  0.60068  Biso   1.000  H 
  H11      1.0000 0.30456  0.08255  0.62056  Biso   1.000  H 
  H12      1.0000 0.47501  0.58331  0.89469  Biso   1.000  H 
  H13      1.0000 0.71146  0.20432  0.10067  Biso   1.000  H 
  H14      1.0000 0.06842  0.79319  0.91409  Biso   1.000  H 
  H15      1.0000 0.97505  0.41447  0.89469  Biso   1.000  H 
  H16      1.0000 0.56865  0.20473  0.91410  Biso   1.000  H 
  N1       1.0000 0.23235  0.09293  0.45616  Biso   1.000  N 
  N2       1.0000 0.73240  0.90494  0.45614  Biso   1.000  N 
  N3       1.0000 0.36006  0.66057  0.05248  Biso   1.000  N 
  N4       1.0000 0.04786  0.09266  0.55891  Biso   1.000  N 
  N5       1.0000 0.04790  0.40516  0.05888  Biso   1.000  N 
  N6       1.0000 0.54786  0.59266  0.05891  Biso   1.000  N 
  N7       1.0000 0.86006  0.16057  0.55248  Biso   1.000  N 
  N8       1.0000 0.42034  0.33745  0.96245  Biso   1.000  N 
  N9       1.0000 0.42022  0.16046  0.46245  Biso   1.000  N 
  N10      1.0000 0.92023  0.66047  0.96245  Biso   1.000  N 
  N11      1.0000 0.73236  0.59293  0.95616  Biso   1.000  N 
  N12      1.0000 0.54789  0.90516  0.55888  Biso   1.000  N 
  N13      1.0000 0.92033  0.83744  0.46245  Biso   1.000  N 
  N14      1.0000 0.86012  0.33732  0.05247  Biso   1.000  N 
  N15      1.0000 0.23241  0.40494  0.95614  Biso   1.000  N 
  N16      1.0000 0.36011  0.83732  0.55247  Biso   1.000  N 
