data_image0
_cell_length_a       6.86258
_cell_length_b       8.72535
_cell_length_c       26.9484
_cell_angle_alpha    90.0022
_cell_angle_beta     103.249
_cell_angle_gamma    90.0146

_symmetry_space_group_name_H-M    "P 1"
_symmetry_int_tables_number       1

loop_
  _symmetry_equiv_pos_as_xyz
  'x, y, z'

loop_
  _atom_site_label
  _atom_site_occupancy
  _atom_site_fract_x
  _atom_site_fract_y
  _atom_site_fract_z
  _atom_site_thermal_displace_type
  _atom_site_B_iso_or_equiv
  _atom_site_type_symbol
  C1       1.0000 0.84825  0.21779  0.59628  Biso   1.000  C 
  C2       1.0000 0.43168  0.27992  0.91864  Biso   1.000  C 
  C3       1.0000 0.65046  0.88423  0.60697  Biso   1.000  C 
  C4       1.0000 0.02941  0.19768  0.63309  Biso   1.000  C 
  C5       1.0000 0.20469  0.23233  0.32978  Biso   1.000  C 
  C6       1.0000 0.20468  0.26560  0.82977  Biso   1.000  C 
  C7       1.0000 0.16239  0.25433  0.78310  Biso   1.000  C 
  C8       1.0000 0.62914  0.88361  0.40809  Biso   1.000  C 
  C9       1.0000 0.15047  0.38423  0.10697  Biso   1.000  C 
  C10      1.0000 0.15050  0.11346  0.60697  Biso   1.000  C 
  C11      1.0000 0.52940  0.69768  0.13309  Biso   1.000  C 
  C12      1.0000 0.65050  0.61347  0.10697  Biso   1.000  C 
  C13      1.0000 0.84810  0.27999  0.09628  Biso   1.000  C 
  C14      1.0000 0.66232  0.74371  0.78312  Biso   1.000  C 
  C15      1.0000 0.70469  0.76559  0.32977  Biso   1.000  C 
  C16      1.0000 0.34825  0.71779  0.09628  Biso   1.000  C 
  C17      1.0000 0.02924  0.30015  0.13310  Biso   1.000  C 
  C18      1.0000 0.16232  0.24370  0.28312  Biso   1.000  C 
  C19      1.0000 0.70469  0.73234  0.82978  Biso   1.000  C 
  C20      1.0000 0.75026  0.79965  0.38191  Biso   1.000  C 
  C21      1.0000 0.57477  0.73166  0.18525  Biso   1.000  C 
  C22      1.0000 0.12918  0.11411  0.40810  Biso   1.000  C 
  C23      1.0000 0.66242  0.75432  0.28310  Biso   1.000  C 
  C24      1.0000 0.43177  0.21789  0.41866  Biso   1.000  C 
  C25      1.0000 0.25031  0.19816  0.38192  Biso   1.000  C 
  C26      1.0000 0.11692  0.25512  0.23193  Biso   1.000  C 
  C27      1.0000 0.93177  0.71790  0.91866  Biso   1.000  C 
  C28      1.0000 0.11704  0.24290  0.73192  Biso   1.000  C 
  C29      1.0000 0.07477  0.23167  0.68525  Biso   1.000  C 
  C30      1.0000 0.75030  0.69817  0.88192  Biso   1.000  C 
  C31      1.0000 0.52923  0.80015  0.63310  Biso   1.000  C 
  C32      1.0000 0.12914  0.38361  0.90809  Biso   1.000  C 
  C33      1.0000 0.25026  0.29966  0.88191  Biso   1.000  C 
  C34      1.0000 0.57459  0.76631  0.68527  Biso   1.000  C 
  C35      1.0000 0.61693  0.75513  0.73193  Biso   1.000  C 
  C36      1.0000 0.93168  0.77991  0.41865  Biso   1.000  C 
  C37      1.0000 0.07458  0.26630  0.18526  Biso   1.000  C 
  C38      1.0000 0.62919  0.61411  0.90810  Biso   1.000  C 
  C39      1.0000 0.61706  0.74289  0.23192  Biso   1.000  C 
  C40      1.0000 0.34810  0.77999  0.59628  Biso   1.000  C 
  Co1      1.0000 0.14007  0.96361  0.50749  Biso   1.000  Co
  Co2      1.0000 0.64007  0.46362  0.00749  Biso   1.000  Co
  Co3      1.0000 0.14018  0.53408  0.00748  Biso   1.000  Co
  Co4      1.0000 0.64017  0.03408  0.50748  Biso   1.000  Co
  H1       1.0000 0.97672  0.42343  0.89397  Biso   1.000  H 
  H2       1.0000 0.06900  0.77330  0.91464  Biso   1.000  H 
  H3       1.0000 0.71092  0.22441  0.10024  Biso   1.000  H 
  H4       1.0000 0.47675  0.57426  0.89398  Biso   1.000  H 
  H5       1.0000 0.47672  0.92343  0.39397  Biso   1.000  H 
  H6       1.0000 0.30275  0.07343  0.62116  Biso   1.000  H 
  H7       1.0000 0.71115  0.27344  0.60024  Biso   1.000  H 
  H8       1.0000 0.56885  0.22455  0.91462  Biso   1.000  H 
  H9       1.0000 0.80275  0.57344  0.12116  Biso   1.000  H 
  H10      1.0000 0.21092  0.72441  0.60024  Biso   1.000  H 
  H11      1.0000 0.80278  0.92423  0.62115  Biso   1.000  H 
  H12      1.0000 0.56899  0.27329  0.41464  Biso   1.000  H 
  H13      1.0000 0.06886  0.72454  0.41462  Biso   1.000  H 
  H14      1.0000 0.30278  0.42423  0.12115  Biso   1.000  H 
  H15      1.0000 0.97674  0.07426  0.39398  Biso   1.000  H 
  H16      1.0000 0.21114  0.77343  0.10024  Biso   1.000  H 
  N1       1.0000 0.92023  0.85055  0.46244  Biso   1.000  N 
  N2       1.0000 0.54703  0.91473  0.55923  Biso   1.000  N 
  N3       1.0000 0.73296  0.58326  0.95578  Biso   1.000  N 
  N4       1.0000 0.92030  0.64721  0.96245  Biso   1.000  N 
  N5       1.0000 0.42024  0.35056  0.96244  Biso   1.000  N 
  N6       1.0000 0.42030  0.14721  0.46245  Biso   1.000  N 
  N7       1.0000 0.23292  0.41445  0.95577  Biso   1.000  N 
  N8       1.0000 0.85989  0.14720  0.55248  Biso   1.000  N 
  N9       1.0000 0.54704  0.58293  0.05924  Biso   1.000  N 
  N10      1.0000 0.04704  0.41473  0.05923  Biso   1.000  N 
  N11      1.0000 0.04703  0.08292  0.55924  Biso   1.000  N 
  N12      1.0000 0.35989  0.64721  0.05248  Biso   1.000  N 
  N13      1.0000 0.73291  0.91445  0.45577  Biso   1.000  N 
  N14      1.0000 0.23296  0.08326  0.45578  Biso   1.000  N 
  N15      1.0000 0.85983  0.35051  0.05248  Biso   1.000  N 
  N16      1.0000 0.35983  0.85051  0.55248  Biso   1.000  N 
