data_image0
_cell_length_a       6.77872
_cell_length_b       9.68896
_cell_length_c       26.6213
_cell_angle_alpha    89.9733
_cell_angle_beta     102.108
_cell_angle_gamma    90.0587

_symmetry_space_group_name_H-M    "P 1"
_symmetry_int_tables_number       1

loop_
  _symmetry_equiv_pos_as_xyz
  'x, y, z'

loop_
  _atom_site_label
  _atom_site_occupancy
  _atom_site_fract_x
  _atom_site_fract_y
  _atom_site_fract_z
  _atom_site_thermal_displace_type
  _atom_site_B_iso_or_equiv
  _atom_site_type_symbol
  C1       1.0000 0.84704  0.20172  0.59630  Biso   1.000  C 
  C2       1.0000 0.43286  0.29595  0.91859  Biso   1.000  C 
  C3       1.0000 0.64877  0.89494  0.60751  Biso   1.000  C 
  C4       1.0000 0.02769  0.18333  0.63329  Biso   1.000  C 
  C5       1.0000 0.20644  0.22104  0.32981  Biso   1.000  C 
  C6       1.0000 0.20595  0.27693  0.82974  Biso   1.000  C 
  C7       1.0000 0.16260  0.25845  0.78309  Biso   1.000  C 
  C8       1.0000 0.63087  0.89478  0.40747  Biso   1.000  C 
  C9       1.0000 0.14878  0.39493  0.10751  Biso   1.000  C 
  C10      1.0000 0.14893  0.10270  0.60753  Biso   1.000  C 
  C11      1.0000 0.52769  0.68333  0.13329  Biso   1.000  C 
  C12      1.0000 0.64893  0.60269  0.10753  Biso   1.000  C 
  C13      1.0000 0.84653  0.29604  0.09634  Biso   1.000  C 
  C14      1.0000 0.66280  0.73948  0.78316  Biso   1.000  C 
  C15      1.0000 0.70595  0.77693  0.32974  Biso   1.000  C 
  C16      1.0000 0.34704  0.70172  0.09630  Biso   1.000  C 
  C17      1.0000 0.02730  0.31439  0.13331  Biso   1.000  C 
  C18      1.0000 0.16281  0.23947  0.28315  Biso   1.000  C 
  C19      1.0000 0.70642  0.72104  0.82981  Biso   1.000  C 
  C20      1.0000 0.75198  0.81416  0.38167  Biso   1.000  C 
  C21      1.0000 0.57332  0.72038  0.18524  Biso   1.000  C 
  C22      1.0000 0.13101  0.10321  0.40756  Biso   1.000  C 
  C23      1.0000 0.66260  0.75845  0.28309  Biso   1.000  C 
  C24      1.0000 0.43345  0.20176  0.41866  Biso   1.000  C 
  C25      1.0000 0.25244  0.18378  0.38175  Biso   1.000  C 
  C26      1.0000 0.11630  0.25914  0.23196  Biso   1.000  C 
  C27      1.0000 0.93343  0.70176  0.91866  Biso   1.000  C 
  C28      1.0000 0.11635  0.23882  0.73189  Biso   1.000  C 
  C29      1.0000 0.07333  0.22039  0.68524  Biso   1.000  C 
  C30      1.0000 0.75242  0.68378  0.88175  Biso   1.000  C 
  C31      1.0000 0.52729  0.81440  0.63332  Biso   1.000  C 
  C32      1.0000 0.13087  0.39478  0.90747  Biso   1.000  C 
  C33      1.0000 0.25198  0.31416  0.88167  Biso   1.000  C 
  C34      1.0000 0.57305  0.77745  0.68529  Biso   1.000  C 
  C35      1.0000 0.61629  0.75914  0.73196  Biso   1.000  C 
  C36      1.0000 0.93287  0.79594  0.41859  Biso   1.000  C 
  C37      1.0000 0.07309  0.27744  0.18529  Biso   1.000  C 
  C38      1.0000 0.63099  0.60321  0.90756  Biso   1.000  C 
  C39      1.0000 0.61635  0.73881  0.23190  Biso   1.000  C 
  C40      1.0000 0.34652  0.79605  0.59634  Biso   1.000  C 
  Co1      1.0000 0.13980  0.96442  0.50750  Biso   1.000  Co
  Co2      1.0000 0.63981  0.46440  0.00750  Biso   1.000  Co
  Co3      1.0000 0.14025  0.53339  0.00748  Biso   1.000  Co
  Co4      1.0000 0.64027  0.03339  0.50748  Biso   1.000  Co
  H1       1.0000 0.97887  0.43264  0.89316  Biso   1.000  H 
  H2       1.0000 0.07069  0.75485  0.91490  Biso   1.000  H 
  H3       1.0000 0.70929  0.24293  0.10010  Biso   1.000  H 
  H4       1.0000 0.47878  0.56552  0.89326  Biso   1.000  H 
  H5       1.0000 0.47886  0.93265  0.39316  Biso   1.000  H 
  H6       1.0000 0.30085  0.06473  0.62190  Biso   1.000  H 
  H7       1.0000 0.70995  0.25493  0.59997  Biso   1.000  H 
  H8       1.0000 0.56989  0.24279  0.91480  Biso   1.000  H 
  H9       1.0000 0.80084  0.56471  0.12190  Biso   1.000  H 
  H10      1.0000 0.20927  0.74293  0.60010  Biso   1.000  H 
  H11      1.0000 0.80087  0.93278  0.62188  Biso   1.000  H 
  H12      1.0000 0.57070  0.25485  0.41491  Biso   1.000  H 
  H13      1.0000 0.06990  0.74279  0.41480  Biso   1.000  H 
  H14      1.0000 0.30088  0.43278  0.12188  Biso   1.000  H 
  H15      1.0000 0.97879  0.06551  0.39326  Biso   1.000  H 
  H16      1.0000 0.20995  0.75493  0.09997  Biso   1.000  H 
  N1       1.0000 0.92063  0.86305  0.46223  Biso   1.000  N 
  N2       1.0000 0.54598  0.92401  0.55973  Biso   1.000  N 
  N3       1.0000 0.73401  0.57380  0.95528  Biso   1.000  N 
  N4       1.0000 0.92102  0.63454  0.96228  Biso   1.000  N 
  N5       1.0000 0.42063  0.36305  0.96223  Biso   1.000  N 
  N6       1.0000 0.42103  0.13454  0.46229  Biso   1.000  N 
  N7       1.0000 0.23389  0.42396  0.95521  Biso   1.000  N 
  N8       1.0000 0.85947  0.13468  0.55267  Biso   1.000  N 
  N9       1.0000 0.54611  0.57365  0.05976  Biso   1.000  N 
  N10      1.0000 0.04598  0.42401  0.05973  Biso   1.000  N 
  N11      1.0000 0.04612  0.07366  0.55976  Biso   1.000  N 
  N12      1.0000 0.35946  0.63468  0.05267  Biso   1.000  N 
  N13      1.0000 0.73390  0.92396  0.45521  Biso   1.000  N 
  N14      1.0000 0.23402  0.07380  0.45528  Biso   1.000  N 
  N15      1.0000 0.85905  0.36309  0.05269  Biso   1.000  N 
  N16      1.0000 0.35905  0.86309  0.55269  Biso   1.000  N 
