data_image0
_cell_length_a       6.87711
_cell_length_b       5.62343
_cell_length_c       27.7787
_cell_angle_alpha    89.947
_cell_angle_beta     107.921
_cell_angle_gamma    89.936

_symmetry_space_group_name_H-M    "P 1"
_symmetry_int_tables_number       1

loop_
  _symmetry_equiv_pos_as_xyz
  'x, y, z'

loop_
  _atom_site_label
  _atom_site_occupancy
  _atom_site_fract_x
  _atom_site_fract_y
  _atom_site_fract_z
  _atom_site_thermal_displace_type
  _atom_site_B_iso_or_equiv
  _atom_site_type_symbol
  C1       1.0000 0.85762  0.30887  0.59624  Biso   1.000  C 
  C2       1.0000 0.58938  0.78931  0.18681  Biso   1.000  C 
  C3       1.0000 0.65782  0.73404  0.28253  Biso   1.000  C 
  C4       1.0000 0.42130  0.30987  0.41871  Biso   1.000  C 
  C5       1.0000 0.12251  0.23311  0.23251  Biso   1.000  C 
  C6       1.0000 0.92132  0.80988  0.91871  Biso   1.000  C 
  C7       1.0000 0.12251  0.26404  0.73253  Biso   1.000  C 
  C8       1.0000 0.08932  0.28936  0.68681  Biso   1.000  C 
  C9       1.0000 0.73324  0.77348  0.88062  Biso   1.000  C 
  C10      1.0000 0.23322  0.27346  0.38062  Biso   1.000  C 
  C11      1.0000 0.10859  0.33030  0.90673  Biso   1.000  C 
  C12      1.0000 0.23369  0.22492  0.88072  Biso   1.000  C 
  C13      1.0000 0.58968  0.70756  0.68683  Biso   1.000  C 
  C14      1.0000 0.62252  0.73322  0.73252  Biso   1.000  C 
  C15      1.0000 0.92196  0.68866  0.41883  Biso   1.000  C 
  C16      1.0000 0.35829  0.68827  0.59628  Biso   1.000  C 
  C17      1.0000 0.62254  0.76402  0.23254  Biso   1.000  C 
  C18      1.0000 0.54655  0.72416  0.63434  Biso   1.000  C 
  C19      1.0000 0.10830  0.16814  0.40668  Biso   1.000  C 
  C20      1.0000 0.35766  0.80881  0.09625  Biso   1.000  C 
  C21      1.0000 0.08968  0.20746  0.18683  Biso   1.000  C 
  C22      1.0000 0.69031  0.78954  0.82814  Biso   1.000  C 
  C23      1.0000 0.60831  0.66815  0.90668  Biso   1.000  C 
  C24      1.0000 0.73370  0.72491  0.38072  Biso   1.000  C 
  C25      1.0000 0.42195  0.18865  0.91882  Biso   1.000  C 
  C26      1.0000 0.19030  0.28950  0.32814  Biso   1.000  C 
  C27      1.0000 0.19065  0.20860  0.82823  Biso   1.000  C 
  C28      1.0000 0.15780  0.23405  0.78252  Biso   1.000  C 
  C29      1.0000 0.60860  0.83030  0.40673  Biso   1.000  C 
  C30      1.0000 0.17144  0.32938  0.10828  Biso   1.000  C 
  C31      1.0000 0.67143  0.82945  0.60827  Biso   1.000  C 
  C32      1.0000 0.54608  0.77287  0.13432  Biso   1.000  C 
  C33      1.0000 0.67115  0.66784  0.10825  Biso   1.000  C 
  C34      1.0000 0.85830  0.18818  0.09628  Biso   1.000  C 
  C35      1.0000 0.65753  0.76366  0.78246  Biso   1.000  C 
  C36      1.0000 0.69066  0.70859  0.32824  Biso   1.000  C 
  C37      1.0000 0.17112  0.16790  0.60826  Biso   1.000  C 
  C38      1.0000 0.15752  0.26358  0.28246  Biso   1.000  C 
  C39      1.0000 0.04655  0.22406  0.13434  Biso   1.000  C 
  C40      1.0000 0.04603  0.27294  0.63432  Biso   1.000  C 
  Co1      1.0000 0.63959  0.03863  0.50744  Biso   1.000  Co
  Co2      1.0000 0.13960  0.53859  0.00745  Biso   1.000  Co
  Co3      1.0000 0.63991  0.45946  0.00750  Biso   1.000  Co
  Co4      1.0000 0.13989  0.95950  0.50751  Biso   1.000  Co
  H1       1.0000 0.82999  0.61489  0.12326  Biso   1.000  H 
  H2       1.0000 0.21540  0.87723  0.09986  Biso   1.000  H 
  H3       1.0000 0.94975  0.11480  0.39161  Biso   1.000  H 
  H4       1.0000 0.33008  0.38251  0.12331  Biso   1.000  H 
  H5       1.0000 0.06415  0.61993  0.41525  Biso   1.000  H 
  H6       1.0000 0.83006  0.88258  0.62331  Biso   1.000  H 
  H7       1.0000 0.21620  0.61975  0.59990  Biso   1.000  H 
  H8       1.0000 0.56336  0.37862  0.41512  Biso   1.000  H 
  H9       1.0000 0.44975  0.61483  0.89161  Biso   1.000  H 
  H10      1.0000 0.32995  0.11493  0.62327  Biso   1.000  H 
  H11      1.0000 0.71536  0.37731  0.59985  Biso   1.000  H 
  H12      1.0000 0.71620  0.11966  0.09989  Biso   1.000  H 
  H13      1.0000 0.06338  0.87864  0.91513  Biso   1.000  H 
  H14      1.0000 0.94988  0.38366  0.89168  Biso   1.000  H 
  H15      1.0000 0.56413  0.11993  0.91524  Biso   1.000  H 
  H16      1.0000 0.44988  0.88364  0.39168  Biso   1.000  H 
  N1       1.0000 0.21733  0.36233  0.95564  Biso   1.000  N 
  N2       1.0000 0.21703  0.13617  0.45561  Biso   1.000  N 
  N3       1.0000 0.71733  0.86235  0.45564  Biso   1.000  N 
  N4       1.0000 0.36817  0.72251  0.05187  Biso   1.000  N 
  N5       1.0000 0.06228  0.13582  0.55935  Biso   1.000  N 
  N6       1.0000 0.56230  0.63577  0.05935  Biso   1.000  N 
  N7       1.0000 0.06256  0.36177  0.05936  Biso   1.000  N 
  N8       1.0000 0.91087  0.72334  0.96312  Biso   1.000  N 
  N9       1.0000 0.41086  0.22336  0.46311  Biso   1.000  N 
  N10      1.0000 0.71704  0.63614  0.95561  Biso   1.000  N 
  N11      1.0000 0.56255  0.86181  0.55936  Biso   1.000  N 
  N12      1.0000 0.91140  0.77522  0.46318  Biso   1.000  N 
  N13      1.0000 0.86866  0.27488  0.05188  Biso   1.000  N 
  N14      1.0000 0.86814  0.22258  0.55186  Biso   1.000  N 
  N15      1.0000 0.41139  0.27520  0.96318  Biso   1.000  N 
  N16      1.0000 0.36864  0.77494  0.55188  Biso   1.000  N 
