data_image0
_cell_length_a       6.71014
_cell_length_b       14.8338
_cell_length_c       24.1194
_cell_angle_alpha    90.0123
_cell_angle_beta     98.7726
_cell_angle_gamma    89.9309

_symmetry_space_group_name_H-M    "P 1"
_symmetry_int_tables_number       1

loop_
  _symmetry_equiv_pos_as_xyz
  'x, y, z'

loop_
  _atom_site_label
  _atom_site_occupancy
  _atom_site_fract_x
  _atom_site_fract_y
  _atom_site_fract_z
  _atom_site_thermal_displace_type
  _atom_site_B_iso_or_equiv
  _atom_site_type_symbol
  C1       1.0000 0.83973  0.14614  0.59826  Biso   1.000  C 
  C2       1.0000 0.25845  0.14334  0.37839  Biso   1.000  C 
  C3       1.0000 0.52079  0.85479  0.63656  Biso   1.000  C 
  C4       1.0000 0.33986  0.85159  0.59795  Biso   1.000  C 
  C5       1.0000 0.11438  0.27001  0.23263  Biso   1.000  C 
  C6       1.0000 0.93953  0.64666  0.91693  Biso   1.000  C 
  C7       1.0000 0.11572  0.22746  0.73278  Biso   1.000  C 
  C8       1.0000 0.07043  0.18897  0.68755  Biso   1.000  C 
  C9       1.0000 0.75844  0.64334  0.87840  Biso   1.000  C 
  C10      1.0000 0.06964  0.30858  0.18739  Biso   1.000  C 
  C11      1.0000 0.13862  0.41717  0.90247  Biso   1.000  C 
  C12      1.0000 0.25908  0.35447  0.87844  Biso   1.000  C 
  C13      1.0000 0.56963  0.80860  0.68740  Biso   1.000  C 
  C14      1.0000 0.61437  0.77003  0.73264  Biso   1.000  C 
  C15      1.0000 0.94042  0.85140  0.41689  Biso   1.000  C 
  C16      1.0000 0.75912  0.85448  0.37843  Biso   1.000  C 
  C17      1.0000 0.61582  0.72748  0.23278  Biso   1.000  C 
  C18      1.0000 0.63852  0.58052  0.90238  Biso   1.000  C 
  C19      1.0000 0.13853  0.08052  0.40238  Biso   1.000  C 
  C20      1.0000 0.43955  0.14665  0.41692  Biso   1.000  C 
  C21      1.0000 0.44039  0.35140  0.91689  Biso   1.000  C 
  C22      1.0000 0.70897  0.68947  0.82757  Biso   1.000  C 
  C23      1.0000 0.64105  0.91755  0.61260  Biso   1.000  C 
  C24      1.0000 0.02108  0.14290  0.63669  Biso   1.000  C 
  C25      1.0000 0.14139  0.08029  0.61254  Biso   1.000  C 
  C26      1.0000 0.20899  0.18946  0.32756  Biso   1.000  C 
  C27      1.0000 0.21000  0.30827  0.82763  Biso   1.000  C 
  C28      1.0000 0.16496  0.26968  0.78242  Biso   1.000  C 
  C29      1.0000 0.63865  0.91718  0.40247  Biso   1.000  C 
  C30      1.0000 0.14106  0.41754  0.11260  Biso   1.000  C 
  C31      1.0000 0.16354  0.22788  0.28230  Biso   1.000  C 
  C32      1.0000 0.52114  0.64289  0.13669  Biso   1.000  C 
  C33      1.0000 0.64143  0.58029  0.11253  Biso   1.000  C 
  C34      1.0000 0.83990  0.35157  0.09794  Biso   1.000  C 
  C35      1.0000 0.66352  0.72789  0.78231  Biso   1.000  C 
  C36      1.0000 0.71007  0.80829  0.32762  Biso   1.000  C 
  C37      1.0000 0.57052  0.68897  0.18754  Biso   1.000  C 
  C38      1.0000 0.66506  0.76970  0.28241  Biso   1.000  C 
  C39      1.0000 0.02082  0.35478  0.13654  Biso   1.000  C 
  C40      1.0000 0.33977  0.64614  0.09826  Biso   1.000  C 
  Co1      1.0000 0.63996  0.02319  0.50744  Biso   1.000  Co
  Co2      1.0000 0.13996  0.52321  0.00744  Biso   1.000  Co
  Co3      1.0000 0.63998  0.47482  0.00738  Biso   1.000  Co
  Co4      1.0000 0.13998  0.97483  0.50738  Biso   1.000  Co
  H1       1.0000 0.29290  0.44050  0.12815  Biso   1.000  H 
  H2       1.0000 0.07650  0.81280  0.41464  Biso   1.000  H 
  H3       1.0000 0.57524  0.18544  0.41475  Biso   1.000  H 
  H4       1.0000 0.79357  0.55737  0.12790  Biso   1.000  H 
  H5       1.0000 0.20370  0.68469  0.10061  Biso   1.000  H 
  H6       1.0000 0.20394  0.81299  0.60013  Biso   1.000  H 
  H7       1.0000 0.79291  0.94050  0.62815  Biso   1.000  H 
  H8       1.0000 0.98667  0.05753  0.38690  Biso   1.000  H 
  H9       1.0000 0.98646  0.44000  0.88703  Biso   1.000  H 
  H10      1.0000 0.70366  0.18469  0.60060  Biso   1.000  H 
  H11      1.0000 0.29354  0.05739  0.62791  Biso   1.000  H 
  H12      1.0000 0.57645  0.31280  0.91464  Biso   1.000  H 
  H13      1.0000 0.48649  0.94000  0.38703  Biso   1.000  H 
  H14      1.0000 0.48666  0.55751  0.88691  Biso   1.000  H 
  H15      1.0000 0.70396  0.31297  0.10010  Biso   1.000  H 
  H16      1.0000 0.07521  0.68546  0.91475  Biso   1.000  H 
  N1       1.0000 0.35266  0.59000  0.05507  Biso   1.000  N 
  N2       1.0000 0.03864  0.04941  0.56396  Biso   1.000  N 
  N3       1.0000 0.03867  0.44851  0.06396  Biso   1.000  N 
  N4       1.0000 0.85264  0.09000  0.55507  Biso   1.000  N 
  N5       1.0000 0.85299  0.40784  0.05485  Biso   1.000  N 
  N6       1.0000 0.53865  0.54941  0.06395  Biso   1.000  N 
  N7       1.0000 0.92735  0.90777  0.45996  Biso   1.000  N 
  N8       1.0000 0.24128  0.04952  0.45094  Biso   1.000  N 
  N9       1.0000 0.42689  0.09028  0.46000  Biso   1.000  N 
  N10      1.0000 0.24130  0.44832  0.95098  Biso   1.000  N 
  N11      1.0000 0.42735  0.40777  0.95996  Biso   1.000  N 
  N12      1.0000 0.92688  0.59029  0.96000  Biso   1.000  N 
  N13      1.0000 0.74128  0.54952  0.95094  Biso   1.000  N 
  N14      1.0000 0.53865  0.94851  0.56397  Biso   1.000  N 
  N15      1.0000 0.74130  0.94831  0.45099  Biso   1.000  N 
  N16      1.0000 0.35296  0.90785  0.55486  Biso   1.000  N 
