data_image0
_cell_length_a       6.99491
_cell_length_b       7.13342
_cell_length_c       27.3077
_cell_angle_alpha    90.0058
_cell_angle_beta     104.589
_cell_angle_gamma    90.0146

_symmetry_space_group_name_H-M    "P 1"
_symmetry_int_tables_number       1

loop_
  _symmetry_equiv_pos_as_xyz
  'x, y, z'

loop_
  _atom_site_label
  _atom_site_occupancy
  _atom_site_fract_x
  _atom_site_fract_y
  _atom_site_fract_z
  _atom_site_thermal_displace_type
  _atom_site_B_iso_or_equiv
  _atom_site_type_symbol
  C1       1.0000 0.84892  0.25490  0.59658  Biso   1.000  C 
  C2       1.0000 0.66182  0.74505  0.28289  Biso   1.000  C 
  C3       1.0000 0.43106  0.25454  0.41833  Biso   1.000  C 
  C4       1.0000 0.24896  0.23236  0.38196  Biso   1.000  C 
  C5       1.0000 0.11724  0.24501  0.23210  Biso   1.000  C 
  C6       1.0000 0.93107  0.75456  0.91833  Biso   1.000  C 
  C7       1.0000 0.11730  0.25336  0.73199  Biso   1.000  C 
  C8       1.0000 0.07576  0.25935  0.68554  Biso   1.000  C 
  C9       1.0000 0.74898  0.73238  0.88197  Biso   1.000  C 
  C10      1.0000 0.53063  0.76564  0.63315  Biso   1.000  C 
  C11      1.0000 0.12828  0.35692  0.90883  Biso   1.000  C 
  C12      1.0000 0.24904  0.26551  0.88186  Biso   1.000  C 
  C13      1.0000 0.57568  0.73905  0.68565  Biso   1.000  C 
  C14      1.0000 0.61724  0.74502  0.73210  Biso   1.000  C 
  C15      1.0000 0.93099  0.74301  0.41824  Biso   1.000  C 
  C16      1.0000 0.07568  0.23905  0.18566  Biso   1.000  C 
  C17      1.0000 0.61731  0.75336  0.23199  Biso   1.000  C 
  C18      1.0000 0.34886  0.74291  0.59669  Biso   1.000  C 
  C19      1.0000 0.12821  0.14080  0.40893  Biso   1.000  C 
  C20      1.0000 0.57577  0.75935  0.18554  Biso   1.000  C 
  C21      1.0000 0.62822  0.64082  0.90893  Biso   1.000  C 
  C22      1.0000 0.70348  0.75919  0.82945  Biso   1.000  C 
  C23      1.0000 0.74903  0.76549  0.38186  Biso   1.000  C 
  C24      1.0000 0.43100  0.24303  0.91824  Biso   1.000  C 
  C25      1.0000 0.65152  0.85730  0.60624  Biso   1.000  C 
  C26      1.0000 0.20347  0.25917  0.32945  Biso   1.000  C 
  C27      1.0000 0.20359  0.23897  0.82934  Biso   1.000  C 
  C28      1.0000 0.16182  0.24505  0.78289  Biso   1.000  C 
  C29      1.0000 0.62827  0.85690  0.40884  Biso   1.000  C 
  C30      1.0000 0.15153  0.35730  0.10624  Biso   1.000  C 
  C31      1.0000 0.03070  0.23247  0.63304  Biso   1.000  C 
  C32      1.0000 0.53071  0.73247  0.13304  Biso   1.000  C 
  C33      1.0000 0.65156  0.64061  0.10616  Biso   1.000  C 
  C34      1.0000 0.84886  0.24291  0.09669  Biso   1.000  C 
  C35      1.0000 0.66175  0.75322  0.78300  Biso   1.000  C 
  C36      1.0000 0.70358  0.73896  0.32934  Biso   1.000  C 
  C37      1.0000 0.16175  0.25321  0.28300  Biso   1.000  C 
  C38      1.0000 0.34892  0.75491  0.09658  Biso   1.000  C 
  C39      1.0000 0.03063  0.26564  0.13315  Biso   1.000  C 
  C40      1.0000 0.15155  0.14061  0.60616  Biso   1.000  C 
  Co1      1.0000 0.63998  0.03514  0.50750  Biso   1.000  Co
  Co2      1.0000 0.13999  0.53516  0.00750  Biso   1.000  Co
  Co3      1.0000 0.64018  0.46187  0.00750  Biso   1.000  Co
  Co4      1.0000 0.14017  0.96185  0.50750  Biso   1.000  Co
  H1       1.0000 0.21213  0.81587  0.10109  Biso   1.000  H 
  H2       1.0000 0.97541  0.09730  0.39525  Biso   1.000  H 
  H3       1.0000 0.30416  0.40122  0.12001  Biso   1.000  H 
  H4       1.0000 0.06777  0.68237  0.41362  Biso   1.000  H 
  H5       1.0000 0.56787  0.31522  0.41372  Biso   1.000  H 
  H6       1.0000 0.21202  0.68201  0.60122  Biso   1.000  H 
  H7       1.0000 0.80415  0.90122  0.62001  Biso   1.000  H 
  H8       1.0000 0.80421  0.59687  0.11993  Biso   1.000  H 
  H9       1.0000 0.47557  0.90063  0.39515  Biso   1.000  H 
  H10      1.0000 0.71212  0.31587  0.60109  Biso   1.000  H 
  H11      1.0000 0.30420  0.09687  0.61993  Biso   1.000  H 
  H12      1.0000 0.47541  0.59732  0.89525  Biso   1.000  H 
  H13      1.0000 0.71203  0.18201  0.10122  Biso   1.000  H 
  H14      1.0000 0.06787  0.81523  0.91372  Biso   1.000  H 
  H15      1.0000 0.97558  0.40065  0.89515  Biso   1.000  H 
  H16      1.0000 0.56777  0.18239  0.91362  Biso   1.000  H 
  N1       1.0000 0.23288  0.10527  0.45655  Biso   1.000  N 
  N2       1.0000 0.73285  0.89207  0.45650  Biso   1.000  N 
  N3       1.0000 0.35944  0.67549  0.05243  Biso   1.000  N 
  N4       1.0000 0.04718  0.10511  0.55850  Biso   1.000  N 
  N5       1.0000 0.04722  0.39235  0.05855  Biso   1.000  N 
  N6       1.0000 0.54719  0.60512  0.05850  Biso   1.000  N 
  N7       1.0000 0.85943  0.17548  0.55243  Biso   1.000  N 
  N8       1.0000 0.42064  0.32196  0.96246  Biso   1.000  N 
  N9       1.0000 0.42074  0.17529  0.46252  Biso   1.000  N 
  N10      1.0000 0.92074  0.67531  0.96252  Biso   1.000  N 
  N11      1.0000 0.73288  0.60528  0.95655  Biso   1.000  N 
  N12      1.0000 0.54721  0.89234  0.55855  Biso   1.000  N 
  N13      1.0000 0.92064  0.82194  0.46246  Biso   1.000  N 
  N14      1.0000 0.85946  0.32192  0.05250  Biso   1.000  N 
  N15      1.0000 0.23285  0.39209  0.95649  Biso   1.000  N 
  N16      1.0000 0.35946  0.82191  0.55250  Biso   1.000  N 
