data_image0
_cell_length_a       7.2984
_cell_length_b       19.95
_cell_length_c       20.9932
_cell_angle_alpha    89.9677
_cell_angle_beta     107.577
_cell_angle_gamma    90.0811

_symmetry_space_group_name_H-M    "P 1"
_symmetry_int_tables_number       1

loop_
  _symmetry_equiv_pos_as_xyz
  'x, y, z'

loop_
  _atom_site_label
  _atom_site_occupancy
  _atom_site_fract_x
  _atom_site_fract_y
  _atom_site_fract_z
  _atom_site_thermal_displace_type
  _atom_site_B_iso_or_equiv
  _atom_site_type_symbol
  C1       1.0000 0.83970  0.11024  0.60264  Biso   1.000  C 
  C2       1.0000 0.25446  0.13222  0.37468  Biso   1.000  C 
  C3       1.0000 0.52520  0.86608  0.64024  Biso   1.000  C 
  C4       1.0000 0.33948  0.88762  0.60270  Biso   1.000  C 
  C5       1.0000 0.11661  0.27313  0.23364  Biso   1.000  C 
  C6       1.0000 0.94016  0.61063  0.91213  Biso   1.000  C 
  C7       1.0000 0.11663  0.22453  0.73392  Biso   1.000  C 
  C8       1.0000 0.07477  0.18112  0.69030  Biso   1.000  C 
  C9       1.0000 0.75446  0.63222  0.87468  Biso   1.000  C 
  C10      1.0000 0.07479  0.31657  0.19004  Biso   1.000  C 
  C11      1.0000 0.13152  0.40614  0.89910  Biso   1.000  C 
  C12      1.0000 0.25440  0.36557  0.87485  Biso   1.000  C 
  C13      1.0000 0.57478  0.81657  0.69005  Biso   1.000  C 
  C14      1.0000 0.61660  0.77313  0.73364  Biso   1.000  C 
  C15      1.0000 0.94008  0.88722  0.41244  Biso   1.000  C 
  C16      1.0000 0.75438  0.86557  0.37485  Biso   1.000  C 
  C17      1.0000 0.61662  0.72453  0.23393  Biso   1.000  C 
  C18      1.0000 0.63162  0.59168  0.89912  Biso   1.000  C 
  C19      1.0000 0.13161  0.09168  0.39912  Biso   1.000  C 
  C20      1.0000 0.44016  0.11063  0.41214  Biso   1.000  C 
  C21      1.0000 0.44009  0.38722  0.91244  Biso   1.000  C 
  C22      1.0000 0.70494  0.68187  0.82503  Biso   1.000  C 
  C23      1.0000 0.64807  0.90645  0.61565  Biso   1.000  C 
  C24      1.0000 0.02541  0.13163  0.64047  Biso   1.000  C 
  C25      1.0000 0.14835  0.09125  0.61607  Biso   1.000  C 
  C26      1.0000 0.20494  0.18187  0.32503  Biso   1.000  C 
  C27      1.0000 0.20487  0.31585  0.82525  Biso   1.000  C 
  C28      1.0000 0.16284  0.27230  0.78177  Biso   1.000  C 
  C29      1.0000 0.63151  0.90614  0.39910  Biso   1.000  C 
  C30      1.0000 0.14808  0.40645  0.11565  Biso   1.000  C 
  C31      1.0000 0.16286  0.22538  0.28150  Biso   1.000  C 
  C32      1.0000 0.52540  0.63163  0.14047  Biso   1.000  C 
  C33      1.0000 0.64835  0.59125  0.11607  Biso   1.000  C 
  C34      1.0000 0.83950  0.38762  0.10270  Biso   1.000  C 
  C35      1.0000 0.66284  0.72538  0.78150  Biso   1.000  C 
  C36      1.0000 0.70486  0.81585  0.32525  Biso   1.000  C 
  C37      1.0000 0.57476  0.68112  0.19030  Biso   1.000  C 
  C38      1.0000 0.66283  0.77230  0.28177  Biso   1.000  C 
  C39      1.0000 0.02521  0.36608  0.14024  Biso   1.000  C 
  C40      1.0000 0.33970  0.61024  0.10264  Biso   1.000  C 
  Co1      1.0000 0.64011  0.00397  0.50717  Biso   1.000  Co
  Co2      1.0000 0.14011  0.50397  0.00716  Biso   1.000  Co
  Co3      1.0000 0.63995  0.49400  0.00734  Biso   1.000  Co
  Co4      1.0000 0.13993  0.99400  0.50734  Biso   1.000  Co
  H1       1.0000 0.30402  0.40692  0.13033  Biso   1.000  H 
  H2       1.0000 0.07872  0.86975  0.41014  Biso   1.000  H 
  H3       1.0000 0.57875  0.12812  0.40968  Biso   1.000  H 
  H4       1.0000 0.80431  0.59073  0.13097  Biso   1.000  H 
  H5       1.0000 0.20102  0.62769  0.10495  Biso   1.000  H 
  H6       1.0000 0.20082  0.87019  0.60518  Biso   1.000  H 
  H7       1.0000 0.80402  0.90693  0.63033  Biso   1.000  H 
  H8       1.0000 0.97567  0.09120  0.38447  Biso   1.000  H 
  H9       1.0000 0.97558  0.40656  0.88433  Biso   1.000  H 
  H10      1.0000 0.70103  0.12769  0.60495  Biso   1.000  H 
  H11      1.0000 0.30431  0.09074  0.63096  Biso   1.000  H 
  H12      1.0000 0.57873  0.36975  0.91014  Biso   1.000  H 
  H13      1.0000 0.47556  0.90656  0.38433  Biso   1.000  H 
  H14      1.0000 0.47567  0.59119  0.88447  Biso   1.000  H 
  H15      1.0000 0.70084  0.37019  0.10518  Biso   1.000  H 
  H16      1.0000 0.07875  0.62812  0.90968  Biso   1.000  H 
  N1       1.0000 0.35246  0.56151  0.05982  Biso   1.000  N 
  N2       1.0000 0.04391  0.04977  0.56806  Biso   1.000  N 
  N3       1.0000 0.04365  0.44806  0.06783  Biso   1.000  N 
  N4       1.0000 0.85245  0.06151  0.55982  Biso   1.000  N 
  N5       1.0000 0.85221  0.43641  0.05987  Biso   1.000  N 
  N6       1.0000 0.54391  0.54977  0.06806  Biso   1.000  N 
  N7       1.0000 0.92744  0.93627  0.45494  Biso   1.000  N 
  N8       1.0000 0.23615  0.04996  0.44682  Biso   1.000  N 
  N9       1.0000 0.42760  0.06165  0.45481  Biso   1.000  N 
  N10      1.0000 0.23600  0.44797  0.94674  Biso   1.000  N 
  N11      1.0000 0.42745  0.43628  0.95494  Biso   1.000  N 
  N12      1.0000 0.92760  0.56165  0.95480  Biso   1.000  N 
  N13      1.0000 0.73616  0.54996  0.94682  Biso   1.000  N 
  N14      1.0000 0.54365  0.94806  0.56783  Biso   1.000  N 
  N15      1.0000 0.73599  0.94797  0.44675  Biso   1.000  N 
  N16      1.0000 0.35220  0.93641  0.55986  Biso   1.000  N 
