data_image0
_cell_length_a       6.68548
_cell_length_b       13.7245
_cell_length_c       24.7673
_cell_angle_alpha    90.0317
_cell_angle_beta     98.9698
_cell_angle_gamma    89.8986

_symmetry_space_group_name_H-M    "P 1"
_symmetry_int_tables_number       1

loop_
  _symmetry_equiv_pos_as_xyz
  'x, y, z'

loop_
  _atom_site_label
  _atom_site_occupancy
  _atom_site_fract_x
  _atom_site_fract_y
  _atom_site_fract_z
  _atom_site_thermal_displace_type
  _atom_site_B_iso_or_equiv
  _atom_site_type_symbol
  C1       1.0000 0.84007  0.15463  0.59777  Biso   1.000  C 
  C2       1.0000 0.64149  0.91605  0.61135  Biso   1.000  C 
  C3       1.0000 0.02062  0.14786  0.63578  Biso   1.000  C 
  C4       1.0000 0.14144  0.08179  0.61121  Biso   1.000  C 
  C5       1.0000 0.20984  0.19316  0.32820  Biso   1.000  C 
  C6       1.0000 0.21053  0.30477  0.82808  Biso   1.000  C 
  C7       1.0000 0.16480  0.26864  0.78247  Biso   1.000  C 
  C8       1.0000 0.63840  0.91564  0.40379  Biso   1.000  C 
  C9       1.0000 0.14150  0.41605  0.11134  Biso   1.000  C 
  C10      1.0000 0.16433  0.22942  0.28261  Biso   1.000  C 
  C11      1.0000 0.52064  0.64787  0.13578  Biso   1.000  C 
  C12      1.0000 0.64146  0.58179  0.11121  Biso   1.000  C 
  C13      1.0000 0.84079  0.34309  0.09776  Biso   1.000  C 
  C14      1.0000 0.66430  0.72944  0.78263  Biso   1.000  C 
  C15      1.0000 0.71059  0.80477  0.32808  Biso   1.000  C 
  C16      1.0000 0.56918  0.69285  0.18683  Biso   1.000  C 
  C17      1.0000 0.02098  0.35003  0.13588  Biso   1.000  C 
  C18      1.0000 0.34010  0.65463  0.09777  Biso   1.000  C 
  C19      1.0000 0.70981  0.69319  0.82821  Biso   1.000  C 
  C20      1.0000 0.43988  0.34297  0.91711  Biso   1.000  C 
  C21      1.0000 0.66486  0.76864  0.28246  Biso   1.000  C 
  C22      1.0000 0.13806  0.08202  0.40375  Biso   1.000  C 
  C23      1.0000 0.43900  0.15479  0.41726  Biso   1.000  C 
  C24      1.0000 0.25850  0.14811  0.37923  Biso   1.000  C 
  C25      1.0000 0.52096  0.85004  0.63589  Biso   1.000  C 
  C26      1.0000 0.11478  0.26907  0.23258  Biso   1.000  C 
  C27      1.0000 0.93899  0.65481  0.91726  Biso   1.000  C 
  C28      1.0000 0.11494  0.22905  0.73242  Biso   1.000  C 
  C29      1.0000 0.06914  0.19284  0.68683  Biso   1.000  C 
  C30      1.0000 0.75849  0.64813  0.87924  Biso   1.000  C 
  C31      1.0000 0.34077  0.84310  0.59777  Biso   1.000  C 
  C32      1.0000 0.13838  0.41565  0.90379  Biso   1.000  C 
  C33      1.0000 0.25918  0.34967  0.87915  Biso   1.000  C 
  C34      1.0000 0.56935  0.80523  0.68698  Biso   1.000  C 
  C35      1.0000 0.61476  0.76909  0.73259  Biso   1.000  C 
  C36      1.0000 0.93991  0.84296  0.41712  Biso   1.000  C 
  C37      1.0000 0.63807  0.58204  0.90376  Biso   1.000  C 
  C38      1.0000 0.75922  0.84967  0.37915  Biso   1.000  C 
  C39      1.0000 0.61501  0.72905  0.23242  Biso   1.000  C 
  C40      1.0000 0.06937  0.30521  0.18697  Biso   1.000  C 
  Co1      1.0000 0.14012  0.97196  0.50742  Biso   1.000  Co
  Co2      1.0000 0.64012  0.47195  0.00742  Biso   1.000  Co
  Co3      1.0000 0.13987  0.52558  0.00751  Biso   1.000  Co
  Co4      1.0000 0.63986  0.02557  0.50751  Biso   1.000  Co
  H1       1.0000 0.07498  0.69643  0.91457  Biso   1.000  H 
  H2       1.0000 0.70473  0.30149  0.10043  Biso   1.000  H 
  H3       1.0000 0.48646  0.55594  0.88864  Biso   1.000  H 
  H4       1.0000 0.48654  0.94175  0.38875  Biso   1.000  H 
  H5       1.0000 0.57623  0.30144  0.91432  Biso   1.000  H 
  H6       1.0000 0.70376  0.19623  0.60050  Biso   1.000  H 
  H7       1.0000 0.29323  0.05566  0.62630  Biso   1.000  H 
  H8       1.0000 0.98653  0.44177  0.88875  Biso   1.000  H 
  H9       1.0000 0.20379  0.69623  0.10050  Biso   1.000  H 
  H10      1.0000 0.79293  0.94231  0.62652  Biso   1.000  H 
  H11      1.0000 0.20471  0.80151  0.60044  Biso   1.000  H 
  H12      1.0000 0.79325  0.55566  0.12630  Biso   1.000  H 
  H13      1.0000 0.57499  0.19642  0.41457  Biso   1.000  H 
  H14      1.0000 0.07627  0.80145  0.41433  Biso   1.000  H 
  H15      1.0000 0.29293  0.44230  0.12651  Biso   1.000  H 
  H16      1.0000 0.98645  0.05593  0.38864  Biso   1.000  H 
  N1       1.0000 0.53971  0.94554  0.56290  Biso   1.000  N 
  N2       1.0000 0.74019  0.55224  0.95210  Biso   1.000  N 
  N3       1.0000 0.92573  0.59711  0.96054  Biso   1.000  N 
  N4       1.0000 0.42635  0.40054  0.96046  Biso   1.000  N 
  N5       1.0000 0.24043  0.44535  0.95213  Biso   1.000  N 
  N6       1.0000 0.42573  0.09710  0.46054  Biso   1.000  N 
  N7       1.0000 0.24018  0.05224  0.45209  Biso   1.000  N 
  N8       1.0000 0.85431  0.40056  0.05441  Biso   1.000  N 
  N9       1.0000 0.53954  0.55212  0.06284  Biso   1.000  N 
  N10      1.0000 0.85370  0.09702  0.55444  Biso   1.000  N 
  N11      1.0000 0.03972  0.44554  0.06289  Biso   1.000  N 
  N12      1.0000 0.03953  0.05212  0.56284  Biso   1.000  N 
  N13      1.0000 0.35371  0.59702  0.05444  Biso   1.000  N 
  N14      1.0000 0.74043  0.94534  0.45214  Biso   1.000  N 
  N15      1.0000 0.92636  0.90054  0.46047  Biso   1.000  N 
  N16      1.0000 0.35430  0.90057  0.55441  Biso   1.000  N 
