data_image0
_cell_length_a       6.70533
_cell_length_b       12.622
_cell_length_c       25.3937
_cell_angle_alpha    89.9903
_cell_angle_beta     99.9661
_cell_angle_gamma    90.0382

_symmetry_space_group_name_H-M    "P 1"
_symmetry_int_tables_number       1

loop_
  _symmetry_equiv_pos_as_xyz
  'x, y, z'

loop_
  _atom_site_label
  _atom_site_occupancy
  _atom_site_fract_x
  _atom_site_fract_y
  _atom_site_fract_z
  _atom_site_thermal_displace_type
  _atom_site_B_iso_or_equiv
  _atom_site_type_symbol
  C1       1.0000 0.84342  0.16462  0.59717  Biso   1.000  C 
  C2       1.0000 0.64412  0.91272  0.61002  Biso   1.000  C 
  C3       1.0000 0.02374  0.15462  0.63495  Biso   1.000  C 
  C4       1.0000 0.14413  0.08517  0.61011  Biso   1.000  C 
  C5       1.0000 0.20812  0.19752  0.32867  Biso   1.000  C 
  C6       1.0000 0.20836  0.30004  0.82882  Biso   1.000  C 
  C7       1.0000 0.16390  0.26714  0.78279  Biso   1.000  C 
  C8       1.0000 0.63577  0.91288  0.40497  Biso   1.000  C 
  C9       1.0000 0.14413  0.41271  0.11002  Biso   1.000  C 
  C10      1.0000 0.16385  0.23056  0.28265  Biso   1.000  C 
  C11      1.0000 0.52375  0.65462  0.13495  Biso   1.000  C 
  C12      1.0000 0.64414  0.58516  0.11011  Biso   1.000  C 
  C13      1.0000 0.84321  0.33326  0.09709  Biso   1.000  C 
  C14      1.0000 0.66384  0.73055  0.78265  Biso   1.000  C 
  C15      1.0000 0.70834  0.80004  0.32883  Biso   1.000  C 
  C16      1.0000 0.57155  0.69802  0.18627  Biso   1.000  C 
  C17      1.0000 0.02367  0.34316  0.13483  Biso   1.000  C 
  C18      1.0000 0.34343  0.66462  0.09717  Biso   1.000  C 
  C19      1.0000 0.70812  0.69752  0.82867  Biso   1.000  C 
  C20      1.0000 0.43636  0.33329  0.91797  Biso   1.000  C 
  C21      1.0000 0.66390  0.76713  0.28279  Biso   1.000  C 
  C22      1.0000 0.13558  0.08481  0.40493  Biso   1.000  C 
  C23      1.0000 0.43632  0.16442  0.41776  Biso   1.000  C 
  C24      1.0000 0.25589  0.15426  0.38002  Biso   1.000  C 
  C25      1.0000 0.52365  0.84317  0.63484  Biso   1.000  C 
  C26      1.0000 0.11581  0.26658  0.23214  Biso   1.000  C 
  C27      1.0000 0.93632  0.66441  0.91776  Biso   1.000  C 
  C28      1.0000 0.11576  0.23114  0.73228  Biso   1.000  C 
  C29      1.0000 0.07153  0.19803  0.68627  Biso   1.000  C 
  C30      1.0000 0.75589  0.65425  0.88002  Biso   1.000  C 
  C31      1.0000 0.34320  0.83327  0.59710  Biso   1.000  C 
  C32      1.0000 0.13579  0.41287  0.90497  Biso   1.000  C 
  C33      1.0000 0.25610  0.34333  0.88017  Biso   1.000  C 
  C34      1.0000 0.57148  0.79966  0.68613  Biso   1.000  C 
  C35      1.0000 0.61580  0.76658  0.73214  Biso   1.000  C 
  C36      1.0000 0.93634  0.83329  0.41797  Biso   1.000  C 
  C37      1.0000 0.63558  0.58481  0.90493  Biso   1.000  C 
  C38      1.0000 0.75607  0.84333  0.38017  Biso   1.000  C 
  C39      1.0000 0.61577  0.73113  0.23228  Biso   1.000  C 
  C40      1.0000 0.07149  0.29965  0.18613  Biso   1.000  C 
  Co1      1.0000 0.13996  0.97022  0.50756  Biso   1.000  Co
  Co2      1.0000 0.63997  0.47021  0.00757  Biso   1.000  Co
  Co3      1.0000 0.13998  0.52796  0.00751  Biso   1.000  Co
  Co4      1.0000 0.63995  0.02797  0.50751  Biso   1.000  Co
  H1       1.0000 0.07235  0.70904  0.91476  Biso   1.000  H 
  H2       1.0000 0.70708  0.28867  0.10003  Biso   1.000  H 
  H3       1.0000 0.48410  0.55544  0.89006  Biso   1.000  H 
  H4       1.0000 0.48439  0.94220  0.39003  Biso   1.000  H 
  H5       1.0000 0.57237  0.28867  0.91506  Biso   1.000  H 
  H6       1.0000 0.70734  0.20914  0.60011  Biso   1.000  H 
  H7       1.0000 0.29561  0.05594  0.62503  Biso   1.000  H 
  H8       1.0000 0.98442  0.44219  0.89002  Biso   1.000  H 
  H9       1.0000 0.20736  0.70914  0.10011  Biso   1.000  H 
  H10      1.0000 0.79570  0.94191  0.62492  Biso   1.000  H 
  H11      1.0000 0.20706  0.78869  0.60003  Biso   1.000  H 
  H12      1.0000 0.79561  0.55593  0.12504  Biso   1.000  H 
  H13      1.0000 0.57233  0.20906  0.41477  Biso   1.000  H 
  H14      1.0000 0.07235  0.78868  0.41506  Biso   1.000  H 
  H15      1.0000 0.29571  0.44191  0.12492  Biso   1.000  H 
  H16      1.0000 0.98410  0.05544  0.39005  Biso   1.000  H 
  N1       1.0000 0.54181  0.94174  0.56184  Biso   1.000  N 
  N2       1.0000 0.73794  0.55610  0.95316  Biso   1.000  N 
  N3       1.0000 0.92352  0.60514  0.96119  Biso   1.000  N 
  N4       1.0000 0.42346  0.39274  0.96133  Biso   1.000  N 
  N5       1.0000 0.23799  0.44179  0.95319  Biso   1.000  N 
  N6       1.0000 0.42351  0.10515  0.46119  Biso   1.000  N 
  N7       1.0000 0.23794  0.05610  0.45316  Biso   1.000  N 
  N8       1.0000 0.85615  0.39279  0.05376  Biso   1.000  N 
  N9       1.0000 0.54191  0.55628  0.06189  Biso   1.000  N 
  N10      1.0000 0.85634  0.10522  0.55380  Biso   1.000  N 
  N11      1.0000 0.04182  0.44174  0.06183  Biso   1.000  N 
  N12      1.0000 0.04191  0.05628  0.56189  Biso   1.000  N 
  N13      1.0000 0.35635  0.60522  0.05380  Biso   1.000  N 
  N14      1.0000 0.73797  0.94179  0.45319  Biso   1.000  N 
  N15      1.0000 0.92345  0.89275  0.46133  Biso   1.000  N 
  N16      1.0000 0.35613  0.89280  0.55376  Biso   1.000  N 
