data_image0
_cell_length_a       7.03347
_cell_length_b       19.6013
_cell_length_c       20.8834
_cell_angle_alpha    89.9823
_cell_angle_beta     103.681
_cell_angle_gamma    90.044

_symmetry_space_group_name_H-M    "P 1"
_symmetry_int_tables_number       1

loop_
  _symmetry_equiv_pos_as_xyz
  'x, y, z'

loop_
  _atom_site_label
  _atom_site_occupancy
  _atom_site_fract_x
  _atom_site_fract_y
  _atom_site_fract_z
  _atom_site_thermal_displace_type
  _atom_site_B_iso_or_equiv
  _atom_site_type_symbol
  C1       1.0000 0.83627  0.11702  0.60047  Biso   1.000  C 
  C2       1.0000 0.25624  0.13278  0.37495  Biso   1.000  C 
  C3       1.0000 0.52383  0.86536  0.64034  Biso   1.000  C 
  C4       1.0000 0.33633  0.88077  0.60077  Biso   1.000  C 
  C5       1.0000 0.11659  0.27291  0.23381  Biso   1.000  C 
  C6       1.0000 0.94365  0.61717  0.91446  Biso   1.000  C 
  C7       1.0000 0.11622  0.22520  0.73333  Biso   1.000  C 
  C8       1.0000 0.07344  0.18198  0.68966  Biso   1.000  C 
  C9       1.0000 0.75622  0.63276  0.87492  Biso   1.000  C 
  C10      1.0000 0.07366  0.31613  0.19014  Biso   1.000  C 
  C11      1.0000 0.13119  0.41108  0.89703  Biso   1.000  C 
  C12      1.0000 0.25585  0.36498  0.87480  Biso   1.000  C 
  C13      1.0000 0.57368  0.81611  0.69012  Biso   1.000  C 
  C14      1.0000 0.61661  0.77289  0.73378  Biso   1.000  C 
  C15      1.0000 0.94334  0.88060  0.41430  Biso   1.000  C 
  C16      1.0000 0.75587  0.86498  0.37479  Biso   1.000  C 
  C17      1.0000 0.61625  0.72520  0.23332  Biso   1.000  C 
  C18      1.0000 0.63146  0.58655  0.89708  Biso   1.000  C 
  C19      1.0000 0.13147  0.08657  0.39711  Biso   1.000  C 
  C20      1.0000 0.44367  0.11718  0.41447  Biso   1.000  C 
  C21      1.0000 0.44332  0.38060  0.91431  Biso   1.000  C 
  C22      1.0000 0.70658  0.68218  0.82530  Biso   1.000  C 
  C23      1.0000 0.64839  0.91148  0.61797  Biso   1.000  C 
  C24      1.0000 0.02372  0.13258  0.64004  Biso   1.000  C 
  C25      1.0000 0.14834  0.08637  0.61790  Biso   1.000  C 
  C26      1.0000 0.20660  0.18220  0.32533  Biso   1.000  C 
  C27      1.0000 0.20608  0.31568  0.82507  Biso   1.000  C 
  C28      1.0000 0.16319  0.27255  0.78132  Biso   1.000  C 
  C29      1.0000 0.63120  0.91108  0.39703  Biso   1.000  C 
  C30      1.0000 0.14837  0.41149  0.11798  Biso   1.000  C 
  C31      1.0000 0.16373  0.22548  0.28173  Biso   1.000  C 
  C32      1.0000 0.52372  0.63258  0.14004  Biso   1.000  C 
  C33      1.0000 0.64833  0.58638  0.11790  Biso   1.000  C 
  C34      1.0000 0.83632  0.38077  0.10077  Biso   1.000  C 
  C35      1.0000 0.66374  0.72546  0.78170  Biso   1.000  C 
  C36      1.0000 0.70609  0.81569  0.32506  Biso   1.000  C 
  C37      1.0000 0.57346  0.68198  0.18966  Biso   1.000  C 
  C38      1.0000 0.66323  0.77256  0.28131  Biso   1.000  C 
  C39      1.0000 0.02381  0.36536  0.14035  Biso   1.000  C 
  C40      1.0000 0.33627  0.61702  0.10047  Biso   1.000  C 
  Co1      1.0000 0.63966  0.00840  0.50735  Biso   1.000  Co
  Co2      1.0000 0.13964  0.50840  0.00735  Biso   1.000  Co
  Co3      1.0000 0.63975  0.48922  0.00743  Biso   1.000  Co
  Co4      1.0000 0.13976  0.98922  0.50743  Biso   1.000  Co
  H1       1.0000 0.30580  0.41762  0.13455  Biso   1.000  H 
  H2       1.0000 0.08353  0.85783  0.41368  Biso   1.000  H 
  H3       1.0000 0.58391  0.14003  0.41392  Biso   1.000  H 
  H4       1.0000 0.80573  0.58029  0.13457  Biso   1.000  H 
  H5       1.0000 0.19614  0.63988  0.10102  Biso   1.000  H 
  H6       1.0000 0.19621  0.85790  0.60146  Biso   1.000  H 
  H7       1.0000 0.80582  0.91761  0.63454  Biso   1.000  H 
  H8       1.0000 0.97405  0.08054  0.38048  Biso   1.000  H 
  H9       1.0000 0.97375  0.41706  0.88046  Biso   1.000  H 
  H10      1.0000 0.69614  0.13988  0.60102  Biso   1.000  H 
  H11      1.0000 0.30572  0.08028  0.63458  Biso   1.000  H 
  H12      1.0000 0.58351  0.35782  0.91369  Biso   1.000  H 
  H13      1.0000 0.47376  0.91706  0.38045  Biso   1.000  H 
  H14      1.0000 0.47404  0.58050  0.88045  Biso   1.000  H 
  H15      1.0000 0.69620  0.35790  0.10146  Biso   1.000  H 
  H16      1.0000 0.08388  0.64003  0.91391  Biso   1.000  H 
  N1       1.0000 0.34985  0.56602  0.05865  Biso   1.000  N 
  N2       1.0000 0.04272  0.04708  0.56940  Biso   1.000  N 
  N3       1.0000 0.04267  0.45061  0.06938  Biso   1.000  N 
  N4       1.0000 0.84986  0.06602  0.55864  Biso   1.000  N 
  N5       1.0000 0.84980  0.43162  0.05875  Biso   1.000  N 
  N6       1.0000 0.54271  0.54708  0.06940  Biso   1.000  N 
  N7       1.0000 0.92972  0.93156  0.45617  Biso   1.000  N 
  N8       1.0000 0.23696  0.04721  0.44555  Biso   1.000  N 
  N9       1.0000 0.42992  0.06613  0.45626  Biso   1.000  N 
  N10      1.0000 0.23678  0.45040  0.94551  Biso   1.000  N 
  N11      1.0000 0.42971  0.43155  0.95617  Biso   1.000  N 
  N12      1.0000 0.92989  0.56613  0.95625  Biso   1.000  N 
  N13      1.0000 0.73695  0.54720  0.94554  Biso   1.000  N 
  N14      1.0000 0.54269  0.95061  0.56937  Biso   1.000  N 
  N15      1.0000 0.73680  0.95040  0.44550  Biso   1.000  N 
  N16      1.0000 0.34982  0.93163  0.55875  Biso   1.000  N 
