data_image0
_cell_length_a       6.96354
_cell_length_b       5.84298
_cell_length_c       27.5942
_cell_angle_alpha    89.9916
_cell_angle_beta     106.234
_cell_angle_gamma    90.04

_symmetry_space_group_name_H-M    "P 1"
_symmetry_int_tables_number       1

loop_
  _symmetry_equiv_pos_as_xyz
  'x, y, z'

loop_
  _atom_site_label
  _atom_site_occupancy
  _atom_site_fract_x
  _atom_site_fract_y
  _atom_site_fract_z
  _atom_site_thermal_displace_type
  _atom_site_B_iso_or_equiv
  _atom_site_type_symbol
  C1       1.0000 0.85161  0.29918  0.59679  Biso   1.000  C 
  C2       1.0000 0.58032  0.78594  0.18641  Biso   1.000  C 
  C3       1.0000 0.66021  0.73451  0.28264  Biso   1.000  C 
  C4       1.0000 0.42801  0.29940  0.41821  Biso   1.000  C 
  C5       1.0000 0.12024  0.23545  0.23238  Biso   1.000  C 
  C6       1.0000 0.92802  0.79940  0.91822  Biso   1.000  C 
  C7       1.0000 0.11891  0.26242  0.73235  Biso   1.000  C 
  C8       1.0000 0.08030  0.28596  0.68641  Biso   1.000  C 
  C9       1.0000 0.74344  0.76852  0.88117  Biso   1.000  C 
  C10      1.0000 0.24344  0.26852  0.38116  Biso   1.000  C 
  C11      1.0000 0.12013  0.33103  0.90803  Biso   1.000  C 
  C12      1.0000 0.24330  0.22908  0.88116  Biso   1.000  C 
  C13      1.0000 0.58132  0.71182  0.68643  Biso   1.000  C 
  C14      1.0000 0.62024  0.73545  0.73238  Biso   1.000  C 
  C15      1.0000 0.92783  0.69809  0.41822  Biso   1.000  C 
  C16      1.0000 0.35180  0.69914  0.59689  Biso   1.000  C 
  C17      1.0000 0.61892  0.76239  0.23236  Biso   1.000  C 
  C18      1.0000 0.53669  0.72998  0.63385  Biso   1.000  C 
  C19      1.0000 0.12013  0.16642  0.40801  Biso   1.000  C 
  C20      1.0000 0.35162  0.79916  0.09679  Biso   1.000  C 
  C21      1.0000 0.08132  0.21182  0.18642  Biso   1.000  C 
  C22      1.0000 0.69956  0.78697  0.82860  Biso   1.000  C 
  C23      1.0000 0.62014  0.66641  0.90801  Biso   1.000  C 
  C24      1.0000 0.74330  0.72907  0.38116  Biso   1.000  C 
  C25      1.0000 0.42783  0.19810  0.91821  Biso   1.000  C 
  C26      1.0000 0.19955  0.28697  0.32860  Biso   1.000  C 
  C27      1.0000 0.19911  0.21089  0.82859  Biso   1.000  C 
  C28      1.0000 0.16020  0.23454  0.78263  Biso   1.000  C 
  C29      1.0000 0.62012  0.83102  0.40803  Biso   1.000  C 
  C30      1.0000 0.15970  0.33164  0.10688  Biso   1.000  C 
  C31      1.0000 0.65969  0.83165  0.60688  Biso   1.000  C 
  C32      1.0000 0.53618  0.76792  0.13383  Biso   1.000  C 
  C33      1.0000 0.65933  0.66617  0.10695  Biso   1.000  C 
  C34      1.0000 0.85180  0.19914  0.09689  Biso   1.000  C 
  C35      1.0000 0.66131  0.76349  0.78265  Biso   1.000  C 
  C36      1.0000 0.69911  0.71088  0.32859  Biso   1.000  C 
  C37      1.0000 0.15932  0.16619  0.60696  Biso   1.000  C 
  C38      1.0000 0.16132  0.26349  0.28265  Biso   1.000  C 
  C39      1.0000 0.03669  0.22998  0.13385  Biso   1.000  C 
  C40      1.0000 0.03617  0.26794  0.63383  Biso   1.000  C 
  Co1      1.0000 0.63979  0.03888  0.50742  Biso   1.000  Co
  Co2      1.0000 0.13981  0.53886  0.00742  Biso   1.000  Co
  Co3      1.0000 0.63977  0.45893  0.00751  Biso   1.000  Co
  Co4      1.0000 0.13976  0.95896  0.50751  Biso   1.000  Co
  H1       1.0000 0.81474  0.61567  0.12113  Biso   1.000  H 
  H2       1.0000 0.21236  0.86677  0.10118  Biso   1.000  H 
  H3       1.0000 0.96459  0.11606  0.39386  Biso   1.000  H 
  H4       1.0000 0.31526  0.38188  0.12097  Biso   1.000  H 
  H5       1.0000 0.06707  0.63030  0.41389  Biso   1.000  H 
  H6       1.0000 0.81526  0.88191  0.62097  Biso   1.000  H 
  H7       1.0000 0.21246  0.63183  0.60133  Biso   1.000  H 
  H8       1.0000 0.56736  0.36702  0.41387  Biso   1.000  H 
  H9       1.0000 0.46460  0.61606  0.89386  Biso   1.000  H 
  H10      1.0000 0.31473  0.11568  0.62113  Biso   1.000  H 
  H11      1.0000 0.71235  0.36680  0.60117  Biso   1.000  H 
  H12      1.0000 0.71246  0.13184  0.10133  Biso   1.000  H 
  H13      1.0000 0.06738  0.86703  0.91387  Biso   1.000  H 
  H14      1.0000 0.96464  0.38137  0.89387  Biso   1.000  H 
  H15      1.0000 0.56708  0.13031  0.91388  Biso   1.000  H 
  H16      1.0000 0.46463  0.88135  0.39387  Biso   1.000  H 
  N1       1.0000 0.22613  0.36650  0.95629  Biso   1.000  N 
  N2       1.0000 0.22610  0.13092  0.45628  Biso   1.000  N 
  N3       1.0000 0.72612  0.86649  0.45630  Biso   1.000  N 
  N4       1.0000 0.36256  0.71296  0.05226  Biso   1.000  N 
  N5       1.0000 0.05333  0.13106  0.55867  Biso   1.000  N 
  N6       1.0000 0.55333  0.63105  0.05867  Biso   1.000  N 
  N7       1.0000 0.05338  0.36704  0.05864  Biso   1.000  N 
  N8       1.0000 0.91699  0.71281  0.96271  Biso   1.000  N 
  N9       1.0000 0.41697  0.21282  0.46270  Biso   1.000  N 
  N10      1.0000 0.72612  0.63092  0.95628  Biso   1.000  N 
  N11      1.0000 0.55337  0.86705  0.55864  Biso   1.000  N 
  N12      1.0000 0.91690  0.78463  0.46272  Biso   1.000  N 
  N13      1.0000 0.86252  0.28541  0.05234  Biso   1.000  N 
  N14      1.0000 0.86255  0.21297  0.55226  Biso   1.000  N 
  N15      1.0000 0.41691  0.28463  0.96272  Biso   1.000  N 
  N16      1.0000 0.36251  0.78542  0.55234  Biso   1.000  N 
