data_image0
_cell_length_a       6.68205
_cell_length_b       16.375
_cell_length_c       22.9258
_cell_angle_alpha    89.995
_cell_angle_beta     97.0883
_cell_angle_gamma    90.0194

_symmetry_space_group_name_H-M    "P 1"
_symmetry_int_tables_number       1

loop_
  _symmetry_equiv_pos_as_xyz
  'x, y, z'

loop_
  _atom_site_label
  _atom_site_occupancy
  _atom_site_fract_x
  _atom_site_fract_y
  _atom_site_fract_z
  _atom_site_thermal_displace_type
  _atom_site_B_iso_or_equiv
  _atom_site_type_symbol
  C1       1.0000 0.83635  0.13834  0.59882  Biso   1.000  C 
  C2       1.0000 0.26313  0.13833  0.37682  Biso   1.000  C 
  C3       1.0000 0.51699  0.85982  0.63820  Biso   1.000  C 
  C4       1.0000 0.33627  0.85961  0.59896  Biso   1.000  C 
  C5       1.0000 0.11485  0.27153  0.23309  Biso   1.000  C 
  C6       1.0000 0.94391  0.63821  0.91606  Biso   1.000  C 
  C7       1.0000 0.11428  0.22644  0.73305  Biso   1.000  C 
  C8       1.0000 0.06727  0.18573  0.68848  Biso   1.000  C 
  C9       1.0000 0.76321  0.63834  0.87682  Biso   1.000  C 
  C10      1.0000 0.06752  0.31229  0.18857  Biso   1.000  C 
  C11      1.0000 0.14271  0.41935  0.90005  Biso   1.000  C 
  C12      1.0000 0.26258  0.35930  0.87693  Biso   1.000  C 
  C13      1.0000 0.56750  0.81230  0.68858  Biso   1.000  C 
  C14      1.0000 0.61483  0.77154  0.73310  Biso   1.000  C 
  C15      1.0000 0.94322  0.85934  0.41615  Biso   1.000  C 
  C16      1.0000 0.76252  0.85930  0.37694  Biso   1.000  C 
  C17      1.0000 0.61429  0.72645  0.23305  Biso   1.000  C 
  C18      1.0000 0.64307  0.57834  0.89994  Biso   1.000  C 
  C19      1.0000 0.14302  0.07832  0.39994  Biso   1.000  C 
  C20      1.0000 0.44385  0.13821  0.41605  Biso   1.000  C 
  C21      1.0000 0.44328  0.35935  0.91614  Biso   1.000  C 
  C22      1.0000 0.71332  0.68598  0.82647  Biso   1.000  C 
  C23      1.0000 0.63651  0.91997  0.61504  Biso   1.000  C 
  C24      1.0000 0.01697  0.13819  0.63810  Biso   1.000  C 
  C25      1.0000 0.13646  0.07797  0.61500  Biso   1.000  C 
  C26      1.0000 0.21325  0.18597  0.32646  Biso   1.000  C 
  C27      1.0000 0.21247  0.31174  0.82655  Biso   1.000  C 
  C28      1.0000 0.16558  0.27106  0.78196  Biso   1.000  C 
  C29      1.0000 0.64268  0.91937  0.40005  Biso   1.000  C 
  C30      1.0000 0.13651  0.41997  0.11503  Biso   1.000  C 
  C31      1.0000 0.16628  0.22678  0.28194  Biso   1.000  C 
  C32      1.0000 0.51700  0.63819  0.13809  Biso   1.000  C 
  C33      1.0000 0.63648  0.57798  0.11500  Biso   1.000  C 
  C34      1.0000 0.83626  0.35962  0.09897  Biso   1.000  C 
  C35      1.0000 0.66630  0.72680  0.78195  Biso   1.000  C 
  C36      1.0000 0.71243  0.81174  0.32656  Biso   1.000  C 
  C37      1.0000 0.56732  0.68574  0.18848  Biso   1.000  C 
  C38      1.0000 0.66557  0.77106  0.28197  Biso   1.000  C 
  C39      1.0000 0.01699  0.35982  0.13819  Biso   1.000  C 
  C40      1.0000 0.33637  0.63834  0.09882  Biso   1.000  C 
  Co1      1.0000 0.63967  0.02138  0.50748  Biso   1.000  Co
  Co2      1.0000 0.13970  0.52138  0.00748  Biso   1.000  Co
  Co3      1.0000 0.63965  0.47630  0.00740  Biso   1.000  Co
  Co4      1.0000 0.13965  0.97629  0.50740  Biso   1.000  Co
  H1       1.0000 0.28810  0.44021  0.13106  Biso   1.000  H 
  H2       1.0000 0.07861  0.82316  0.41470  Biso   1.000  H 
  H3       1.0000 0.57952  0.17425  0.41460  Biso   1.000  H 
  H4       1.0000 0.78794  0.55773  0.13110  Biso   1.000  H 
  H5       1.0000 0.20114  0.67462  0.10029  Biso   1.000  H 
  H6       1.0000 0.20102  0.82333  0.60048  Biso   1.000  H 
  H7       1.0000 0.78809  0.94022  0.63107  Biso   1.000  H 
  H8       1.0000 0.99127  0.05835  0.38385  Biso   1.000  H 
  H9       1.0000 0.99105  0.43938  0.88396  Biso   1.000  H 
  H10      1.0000 0.70111  0.17461  0.60027  Biso   1.000  H 
  H11      1.0000 0.28792  0.05772  0.63111  Biso   1.000  H 
  H12      1.0000 0.57871  0.32319  0.91468  Biso   1.000  H 
  H13      1.0000 0.49103  0.93941  0.38396  Biso   1.000  H 
  H14      1.0000 0.49131  0.55838  0.88385  Biso   1.000  H 
  H15      1.0000 0.70100  0.32334  0.10048  Biso   1.000  H 
  H16      1.0000 0.07961  0.67424  0.91462  Biso   1.000  H 
  N1       1.0000 0.34927  0.58291  0.05608  Biso   1.000  N 
  N2       1.0000 0.03422  0.04568  0.56614  Biso   1.000  N 
  N3       1.0000 0.03417  0.45218  0.06617  Biso   1.000  N 
  N4       1.0000 0.84927  0.08291  0.55608  Biso   1.000  N 
  N5       1.0000 0.84916  0.41496  0.05617  Biso   1.000  N 
  N6       1.0000 0.53422  0.54568  0.06614  Biso   1.000  N 
  N7       1.0000 0.93010  0.91476  0.45887  Biso   1.000  N 
  N8       1.0000 0.24503  0.04589  0.44878  Biso   1.000  N 
  N9       1.0000 0.43038  0.08285  0.45880  Biso   1.000  N 
  N10      1.0000 0.24492  0.45179  0.94885  Biso   1.000  N 
  N11      1.0000 0.43013  0.41476  0.95887  Biso   1.000  N 
  N12      1.0000 0.93041  0.58285  0.95881  Biso   1.000  N 
  N13      1.0000 0.74505  0.54590  0.94879  Biso   1.000  N 
  N14      1.0000 0.53418  0.95218  0.56618  Biso   1.000  N 
  N15      1.0000 0.74492  0.95180  0.44886  Biso   1.000  N 
  N16      1.0000 0.34917  0.91496  0.55617  Biso   1.000  N 
