data_image0
_cell_length_a       7.02345
_cell_length_b       6.59826
_cell_length_c       27.3959
_cell_angle_alpha    89.9811
_cell_angle_beta     105.018
_cell_angle_gamma    90.0213

_symmetry_space_group_name_H-M    "P 1"
_symmetry_int_tables_number       1

loop_
  _symmetry_equiv_pos_as_xyz
  'x, y, z'

loop_
  _atom_site_label
  _atom_site_occupancy
  _atom_site_fract_x
  _atom_site_fract_y
  _atom_site_fract_z
  _atom_site_thermal_displace_type
  _atom_site_B_iso_or_equiv
  _atom_site_type_symbol
  C1       1.0000 0.84921  0.27143  0.59681  Biso   1.000  C 
  C2       1.0000 0.74828  0.75017  0.38176  Biso   1.000  C 
  C3       1.0000 0.43069  0.22621  0.91813  Biso   1.000  C 
  C4       1.0000 0.65230  0.84542  0.60607  Biso   1.000  C 
  C5       1.0000 0.20295  0.27112  0.32916  Biso   1.000  C 
  C6       1.0000 0.20289  0.22700  0.82914  Biso   1.000  C 
  C7       1.0000 0.16150  0.24046  0.78285  Biso   1.000  C 
  C8       1.0000 0.62745  0.84510  0.40896  Biso   1.000  C 
  C9       1.0000 0.15230  0.34543  0.10606  Biso   1.000  C 
  C10      1.0000 0.03138  0.24723  0.63324  Biso   1.000  C 
  C11      1.0000 0.53139  0.74723  0.13324  Biso   1.000  C 
  C12      1.0000 0.65235  0.65211  0.10611  Biso   1.000  C 
  C13      1.0000 0.84905  0.22634  0.09681  Biso   1.000  C 
  C14      1.0000 0.66162  0.75788  0.78287  Biso   1.000  C 
  C15      1.0000 0.70287  0.72699  0.32914  Biso   1.000  C 
  C16      1.0000 0.16162  0.25787  0.28287  Biso   1.000  C 
  C17      1.0000 0.03124  0.25058  0.13324  Biso   1.000  C 
  C18      1.0000 0.15234  0.15210  0.60611  Biso   1.000  C 
  C19      1.0000 0.70295  0.77114  0.82916  Biso   1.000  C 
  C20      1.0000 0.62749  0.65270  0.90898  Biso   1.000  C 
  C21      1.0000 0.34921  0.77143  0.09681  Biso   1.000  C 
  C22      1.0000 0.12748  0.15268  0.40898  Biso   1.000  C 
  C23      1.0000 0.57642  0.77059  0.18585  Biso   1.000  C 
  C24      1.0000 0.66148  0.74045  0.28285  Biso   1.000  C 
  C25      1.0000 0.43079  0.27152  0.41814  Biso   1.000  C 
  C26      1.0000 0.11757  0.24126  0.23215  Biso   1.000  C 
  C27      1.0000 0.93079  0.77153  0.91814  Biso   1.000  C 
  C28      1.0000 0.11754  0.25713  0.73214  Biso   1.000  C 
  C29      1.0000 0.07642  0.27060  0.68585  Biso   1.000  C 
  C30      1.0000 0.74835  0.74769  0.88178  Biso   1.000  C 
  C31      1.0000 0.24834  0.24767  0.38178  Biso   1.000  C 
  C32      1.0000 0.12746  0.34511  0.90895  Biso   1.000  C 
  C33      1.0000 0.24830  0.25018  0.88176  Biso   1.000  C 
  C34      1.0000 0.57630  0.72757  0.68587  Biso   1.000  C 
  C35      1.0000 0.61757  0.74125  0.73216  Biso   1.000  C 
  C36      1.0000 0.93067  0.72620  0.41813  Biso   1.000  C 
  C37      1.0000 0.34904  0.72633  0.59681  Biso   1.000  C 
  C38      1.0000 0.07630  0.22758  0.18586  Biso   1.000  C 
  C39      1.0000 0.61753  0.75712  0.23214  Biso   1.000  C 
  C40      1.0000 0.53124  0.75057  0.63324  Biso   1.000  C 
  Co1      1.0000 0.14007  0.96111  0.50749  Biso   1.000  Co
  Co2      1.0000 0.64008  0.46112  0.00749  Biso   1.000  Co
  Co3      1.0000 0.14019  0.53659  0.00747  Biso   1.000  Co
  Co4      1.0000 0.64018  0.03658  0.50747  Biso   1.000  Co
  H1       1.0000 0.56751  0.16277  0.91344  Biso   1.000  H 
  H2       1.0000 0.97442  0.39043  0.89532  Biso   1.000  H 
  H3       1.0000 0.06764  0.83495  0.91343  Biso   1.000  H 
  H4       1.0000 0.71215  0.16288  0.10148  Biso   1.000  H 
  H5       1.0000 0.47442  0.60732  0.89537  Biso   1.000  H 
  H6       1.0000 0.71236  0.33497  0.60145  Biso   1.000  H 
  H7       1.0000 0.30531  0.10661  0.61979  Biso   1.000  H 
  H8       1.0000 0.47440  0.89041  0.39532  Biso   1.000  H 
  H9       1.0000 0.56764  0.33492  0.41343  Biso   1.000  H 
  H10      1.0000 0.80531  0.89087  0.61974  Biso   1.000  H 
  H11      1.0000 0.21215  0.66288  0.60148  Biso   1.000  H 
  H12      1.0000 0.06750  0.66276  0.41344  Biso   1.000  H 
  H13      1.0000 0.30531  0.39088  0.11973  Biso   1.000  H 
  H14      1.0000 0.97441  0.10730  0.39537  Biso   1.000  H 
  H15      1.0000 0.21236  0.83497  0.10145  Biso   1.000  H 
  H16      1.0000 0.80532  0.60661  0.11979  Biso   1.000  H 
  N1       1.0000 0.85945  0.30890  0.05244  Biso   1.000  N 
  N2       1.0000 0.92054  0.80891  0.46250  Biso   1.000  N 
  N3       1.0000 0.54764  0.88226  0.55832  Biso   1.000  N 
  N4       1.0000 0.73247  0.61551  0.95669  Biso   1.000  N 
  N5       1.0000 0.92067  0.68869  0.96250  Biso   1.000  N 
  N6       1.0000 0.42066  0.18867  0.46250  Biso   1.000  N 
  N7       1.0000 0.42055  0.30892  0.96250  Biso   1.000  N 
  N8       1.0000 0.04764  0.38226  0.05832  Biso   1.000  N 
  N9       1.0000 0.54766  0.61518  0.05837  Biso   1.000  N 
  N10      1.0000 0.04766  0.11518  0.55837  Biso   1.000  N 
  N11      1.0000 0.35956  0.68868  0.05247  Biso   1.000  N 
  N12      1.0000 0.73238  0.88213  0.45666  Biso   1.000  N 
  N13      1.0000 0.23246  0.11549  0.45669  Biso   1.000  N 
  N14      1.0000 0.23239  0.38214  0.95666  Biso   1.000  N 
  N15      1.0000 0.85955  0.18867  0.55247  Biso   1.000  N 
  N16      1.0000 0.35945  0.80890  0.55244  Biso   1.000  N 
