data_image0
_cell_length_a       6.69387
_cell_length_b       11.6545
_cell_length_c       25.8308
_cell_angle_alpha    89.9905
_cell_angle_beta     100.313
_cell_angle_gamma    90.0345

_symmetry_space_group_name_H-M    "P 1"
_symmetry_int_tables_number       1

loop_
  _symmetry_equiv_pos_as_xyz
  'x, y, z'

loop_
  _atom_site_label
  _atom_site_occupancy
  _atom_site_fract_x
  _atom_site_fract_y
  _atom_site_fract_z
  _atom_site_thermal_displace_type
  _atom_site_B_iso_or_equiv
  _atom_site_type_symbol
  C1       1.0000 0.84351  0.17534  0.59683  Biso   1.000  C 
  C2       1.0000 0.43614  0.17525  0.41809  Biso   1.000  C 
  C3       1.0000 0.25580  0.16216  0.38069  Biso   1.000  C 
  C4       1.0000 0.52410  0.83564  0.63421  Biso   1.000  C 
  C5       1.0000 0.11612  0.26457  0.23200  Biso   1.000  C 
  C6       1.0000 0.93612  0.67525  0.91809  Biso   1.000  C 
  C7       1.0000 0.11537  0.23295  0.73215  Biso   1.000  C 
  C8       1.0000 0.07052  0.20395  0.68583  Biso   1.000  C 
  C9       1.0000 0.75578  0.66217  0.88069  Biso   1.000  C 
  C10      1.0000 0.34372  0.82262  0.59682  Biso   1.000  C 
  C11      1.0000 0.13472  0.40859  0.90591  Biso   1.000  C 
  C12      1.0000 0.25587  0.33541  0.88080  Biso   1.000  C 
  C13      1.0000 0.57126  0.79380  0.68571  Biso   1.000  C 
  C14      1.0000 0.61610  0.76458  0.73200  Biso   1.000  C 
  C15      1.0000 0.93612  0.82247  0.41825  Biso   1.000  C 
  C16      1.0000 0.63455  0.58915  0.90591  Biso   1.000  C 
  C17      1.0000 0.61538  0.73295  0.23215  Biso   1.000  C 
  C18      1.0000 0.07128  0.29378  0.18571  Biso   1.000  C 
  C19      1.0000 0.13457  0.08915  0.40591  Biso   1.000  C 
  C20      1.0000 0.66391  0.76453  0.28299  Biso   1.000  C 
  C21      1.0000 0.75588  0.83541  0.38080  Biso   1.000  C 
  C22      1.0000 0.70890  0.70381  0.82914  Biso   1.000  C 
  C23      1.0000 0.43611  0.32247  0.91825  Biso   1.000  C 
  C24      1.0000 0.64521  0.90881  0.60904  Biso   1.000  C 
  C25      1.0000 0.02365  0.16225  0.63430  Biso   1.000  C 
  C26      1.0000 0.20892  0.20380  0.32914  Biso   1.000  C 
  C27      1.0000 0.20886  0.29361  0.82929  Biso   1.000  C 
  C28      1.0000 0.16390  0.26454  0.78299  Biso   1.000  C 
  C29      1.0000 0.63472  0.90859  0.40591  Biso   1.000  C 
  C30      1.0000 0.14521  0.40881  0.10903  Biso   1.000  C 
  C31      1.0000 0.14486  0.08915  0.60917  Biso   1.000  C 
  C32      1.0000 0.52365  0.66225  0.13430  Biso   1.000  C 
  C33      1.0000 0.64486  0.58914  0.10917  Biso   1.000  C 
  C34      1.0000 0.84373  0.32261  0.09682  Biso   1.000  C 
  C35      1.0000 0.66439  0.73290  0.78283  Biso   1.000  C 
  C36      1.0000 0.70887  0.79361  0.32929  Biso   1.000  C 
  C37      1.0000 0.34352  0.67534  0.09683  Biso   1.000  C 
  C38      1.0000 0.57053  0.70395  0.18583  Biso   1.000  C 
  C39      1.0000 0.02411  0.33564  0.13421  Biso   1.000  C 
  C40      1.0000 0.16442  0.23289  0.28283  Biso   1.000  C 
  Co1      1.0000 0.63984  0.03028  0.50745  Biso   1.000  Co
  Co2      1.0000 0.13984  0.53028  0.00745  Biso   1.000  Co
  Co3      1.0000 0.63987  0.46784  0.00752  Biso   1.000  Co
  Co4      1.0000 0.13987  0.96784  0.50752  Biso   1.000  Co
  H1       1.0000 0.98279  0.05694  0.39125  Biso   1.000  H 
  H2       1.0000 0.29700  0.44100  0.12370  Biso   1.000  H 
  H3       1.0000 0.07287  0.77499  0.41506  Biso   1.000  H 
  H4       1.0000 0.57291  0.22270  0.41482  Biso   1.000  H 
  H5       1.0000 0.79650  0.55692  0.12391  Biso   1.000  H 
  H6       1.0000 0.79699  0.94100  0.62370  Biso   1.000  H 
  H7       1.0000 0.20705  0.77507  0.60009  Biso   1.000  H 
  H8       1.0000 0.20679  0.72283  0.10003  Biso   1.000  H 
  H9       1.0000 0.57286  0.27499  0.91507  Biso   1.000  H 
  H10      1.0000 0.29650  0.05693  0.62391  Biso   1.000  H 
  H11      1.0000 0.70678  0.22283  0.60003  Biso   1.000  H 
  H12      1.0000 0.48304  0.94076  0.39119  Biso   1.000  H 
  H13      1.0000 0.48277  0.55693  0.89125  Biso   1.000  H 
  H14      1.0000 0.70706  0.27506  0.10009  Biso   1.000  H 
  H15      1.0000 0.07289  0.72270  0.91482  Biso   1.000  H 
  H16      1.0000 0.98303  0.44076  0.89119  Biso   1.000  H 
  N1       1.0000 0.73668  0.93719  0.45390  Biso   1.000  N 
  N2       1.0000 0.35703  0.61382  0.05340  Biso   1.000  N 
  N3       1.0000 0.04302  0.06072  0.56114  Biso   1.000  N 
  N4       1.0000 0.04308  0.43733  0.06106  Biso   1.000  N 
  N5       1.0000 0.85703  0.11383  0.55340  Biso   1.000  N 
  N6       1.0000 0.54302  0.56071  0.06114  Biso   1.000  N 
  N7       1.0000 0.85700  0.38421  0.05339  Biso   1.000  N 
  N8       1.0000 0.23668  0.43719  0.95390  Biso   1.000  N 
  N9       1.0000 0.42273  0.11381  0.46156  Biso   1.000  N 
  N10      1.0000 0.42268  0.38411  0.96165  Biso   1.000  N 
  N11      1.0000 0.92273  0.61381  0.96156  Biso   1.000  N 
  N12      1.0000 0.73660  0.56075  0.95391  Biso   1.000  N 
  N13      1.0000 0.54308  0.93733  0.56106  Biso   1.000  N 
  N14      1.0000 0.92269  0.88411  0.46165  Biso   1.000  N 
  N15      1.0000 0.23661  0.06075  0.45391  Biso   1.000  N 
  N16      1.0000 0.35700  0.88421  0.55339  Biso   1.000  N 
