data_image0
_cell_length_a       7.02595
_cell_length_b       6.09346
_cell_length_c       27.5058
_cell_angle_alpha    89.9404
_cell_angle_beta     105.673
_cell_angle_gamma    90.0944

_symmetry_space_group_name_H-M    "P 1"
_symmetry_int_tables_number       1

loop_
  _symmetry_equiv_pos_as_xyz
  'x, y, z'

loop_
  _atom_site_label
  _atom_site_occupancy
  _atom_site_fract_x
  _atom_site_fract_y
  _atom_site_fract_z
  _atom_site_thermal_displace_type
  _atom_site_B_iso_or_equiv
  _atom_site_type_symbol
  C1       1.0000 0.85002  0.28842  0.59687  Biso   1.000  C 
  C2       1.0000 0.74673  0.73610  0.38152  Biso   1.000  C 
  C3       1.0000 0.42980  0.20944  0.91817  Biso   1.000  C 
  C4       1.0000 0.65457  0.83422  0.60632  Biso   1.000  C 
  C5       1.0000 0.20218  0.28198  0.32879  Biso   1.000  C 
  C6       1.0000 0.20180  0.21613  0.82888  Biso   1.000  C 
  C7       1.0000 0.16115  0.23649  0.78277  Biso   1.000  C 
  C8       1.0000 0.62500  0.83452  0.40866  Biso   1.000  C 
  C9       1.0000 0.15457  0.33422  0.10632  Biso   1.000  C 
  C10      1.0000 0.03292  0.26134  0.63356  Biso   1.000  C 
  C11      1.0000 0.53291  0.76132  0.13356  Biso   1.000  C 
  C12      1.0000 0.65473  0.66291  0.10644  Biso   1.000  C 
  C13      1.0000 0.84948  0.20900  0.09685  Biso   1.000  C 
  C14      1.0000 0.66146  0.76125  0.78270  Biso   1.000  C 
  C15      1.0000 0.70180  0.71612  0.32888  Biso   1.000  C 
  C16      1.0000 0.16146  0.26124  0.28270  Biso   1.000  C 
  C17      1.0000 0.03261  0.23572  0.13349  Biso   1.000  C 
  C18      1.0000 0.15472  0.16292  0.60644  Biso   1.000  C 
  C19      1.0000 0.70218  0.78199  0.82879  Biso   1.000  C 
  C20      1.0000 0.62525  0.66378  0.90864  Biso   1.000  C 
  C21      1.0000 0.35002  0.78841  0.09687  Biso   1.000  C 
  C22      1.0000 0.12525  0.16376  0.40864  Biso   1.000  C 
  C23      1.0000 0.57759  0.78121  0.18619  Biso   1.000  C 
  C24      1.0000 0.66114  0.73648  0.28277  Biso   1.000  C 
  C25      1.0000 0.43034  0.28882  0.41805  Biso   1.000  C 
  C26      1.0000 0.11806  0.23656  0.23224  Biso   1.000  C 
  C27      1.0000 0.93034  0.78882  0.91805  Biso   1.000  C 
  C28      1.0000 0.11795  0.26094  0.73230  Biso   1.000  C 
  C29      1.0000 0.07760  0.28123  0.68619  Biso   1.000  C 
  C30      1.0000 0.74714  0.76214  0.88144  Biso   1.000  C 
  C31      1.0000 0.24714  0.26213  0.38144  Biso   1.000  C 
  C32      1.0000 0.12500  0.33453  0.90866  Biso   1.000  C 
  C33      1.0000 0.24674  0.23611  0.88152  Biso   1.000  C 
  C34      1.0000 0.57744  0.71590  0.68614  Biso   1.000  C 
  C35      1.0000 0.61805  0.73656  0.73224  Biso   1.000  C 
  C36      1.0000 0.92980  0.70943  0.41817  Biso   1.000  C 
  C37      1.0000 0.34947  0.70900  0.59685  Biso   1.000  C 
  C38      1.0000 0.07745  0.21589  0.18614  Biso   1.000  C 
  C39      1.0000 0.61794  0.76093  0.23230  Biso   1.000  C 
  C40      1.0000 0.53260  0.73573  0.63349  Biso   1.000  C 
  Co1      1.0000 0.14000  0.96082  0.50751  Biso   1.000  Co
  Co2      1.0000 0.64001  0.46082  0.00751  Biso   1.000  Co
  Co3      1.0000 0.14003  0.53744  0.00745  Biso   1.000  Co
  Co4      1.0000 0.64003  0.03743  0.50745  Biso   1.000  Co
  H1       1.0000 0.56745  0.14379  0.91358  Biso   1.000  H 
  H2       1.0000 0.97106  0.38184  0.89484  Biso   1.000  H 
  H3       1.0000 0.06809  0.85450  0.91341  Biso   1.000  H 
  H4       1.0000 0.71170  0.14326  0.10146  Biso   1.000  H 
  H5       1.0000 0.47123  0.61639  0.89486  Biso   1.000  H 
  H6       1.0000 0.71241  0.35427  0.60144  Biso   1.000  H 
  H7       1.0000 0.30856  0.11530  0.62030  Biso   1.000  H 
  H8       1.0000 0.47107  0.88184  0.39484  Biso   1.000  H 
  H9       1.0000 0.56809  0.35451  0.41341  Biso   1.000  H 
  H10      1.0000 0.80858  0.88163  0.62014  Biso   1.000  H 
  H11      1.0000 0.21171  0.64327  0.60146  Biso   1.000  H 
  H12      1.0000 0.06744  0.64378  0.41358  Biso   1.000  H 
  H13      1.0000 0.30859  0.38162  0.12014  Biso   1.000  H 
  H14      1.0000 0.97122  0.11637  0.39486  Biso   1.000  H 
  H15      1.0000 0.21241  0.85425  0.10144  Biso   1.000  H 
  H16      1.0000 0.80856  0.61529  0.12030  Biso   1.000  H 
  N1       1.0000 0.86018  0.29469  0.05236  Biso   1.000  N 
  N2       1.0000 0.91930  0.79503  0.46264  Biso   1.000  N 
  N3       1.0000 0.54947  0.87178  0.55835  Biso   1.000  N 
  N4       1.0000 0.73045  0.62633  0.95661  Biso   1.000  N 
  N5       1.0000 0.91976  0.70331  0.96257  Biso   1.000  N 
  N6       1.0000 0.41975  0.20332  0.46257  Biso   1.000  N 
  N7       1.0000 0.41930  0.29504  0.96264  Biso   1.000  N 
  N8       1.0000 0.04947  0.37178  0.05835  Biso   1.000  N 
  N9       1.0000 0.54974  0.62580  0.05844  Biso   1.000  N 
  N10      1.0000 0.04974  0.12581  0.55843  Biso   1.000  N 
  N11      1.0000 0.36067  0.70308  0.05238  Biso   1.000  N 
  N12      1.0000 0.73018  0.87207  0.45662  Biso   1.000  N 
  N13      1.0000 0.23045  0.12632  0.45661  Biso   1.000  N 
  N14      1.0000 0.23019  0.37208  0.95662  Biso   1.000  N 
  N15      1.0000 0.86067  0.20309  0.55238  Biso   1.000  N 
  N16      1.0000 0.36018  0.79469  0.55236  Biso   1.000  N 
