data_image0
_cell_length_a       25.4056
_cell_length_b       11.967
_cell_length_c       7.32463
_cell_angle_alpha    90
_cell_angle_beta     90.0012
_cell_angle_gamma    89.9997

_symmetry_space_group_name_H-M    "P 1"
_symmetry_int_tables_number       1

loop_
  _symmetry_equiv_pos_as_xyz
  'x, y, z'

loop_
  _atom_site_label
  _atom_site_occupancy
  _atom_site_fract_x
  _atom_site_fract_y
  _atom_site_fract_z
  _atom_site_thermal_displace_type
  _atom_site_B_iso_or_equiv
  _atom_site_type_symbol
  C1       1.0000 0.61206  0.86969  0.84877  Biso   1.000  C 
  C2       1.0000 0.74077  0.23396  0.50000  Biso   1.000  C 
  C3       1.0000 0.79134  0.26799  0.50000  Biso   1.000  C 
  C4       1.0000 0.29134  0.76799  0.50001  Biso   1.000  C 
  C5       1.0000 0.79134  0.73201  1.00000  Biso   1.000  C 
  C6       1.0000 0.29134  0.23202  0.00000  Biso   1.000  C 
  C7       1.0000 0.61207  0.13032  0.65124  Biso   1.000  C 
  C8       1.0000 0.74076  0.76603  1.00000  Biso   1.000  C 
  C9       1.0000 0.11207  0.36969  0.15123  Biso   1.000  C 
  C10      1.0000 0.83734  0.70084  0.99998  Biso   1.000  C 
  C11      1.0000 0.42028  0.12968  0.15121  Biso   1.000  C 
  C12      1.0000 0.42028  0.87032  0.65122  Biso   1.000  C 
  C13      1.0000 0.61206  0.86968  0.15124  Biso   1.000  C 
  C14      1.0000 0.42028  0.87031  0.34881  Biso   1.000  C 
  C15      1.0000 0.92028  0.37032  0.34878  Biso   1.000  C 
  C16      1.0000 0.61207  0.13031  0.34878  Biso   1.000  C 
  C17      1.0000 0.92028  0.62969  0.15119  Biso   1.000  C 
  C18      1.0000 0.69482  0.79759  1.00000  Biso   1.000  C 
  C19      1.0000 0.24076  0.73396  0.50000  Biso   1.000  C 
  C20      1.0000 0.38886  0.15917  0.00001  Biso   1.000  C 
  C21      1.0000 0.92028  0.37032  0.65119  Biso   1.000  C 
  C22      1.0000 0.19482  0.29759  0.00000  Biso   1.000  C 
  C23      1.0000 0.24076  0.26603  0.00000  Biso   1.000  C 
  C24      1.0000 0.11207  0.36969  0.84877  Biso   1.000  C 
  C25      1.0000 0.42028  0.12969  0.84880  Biso   1.000  C 
  C26      1.0000 0.92028  0.62968  0.84877  Biso   1.000  C 
  C27      1.0000 0.38886  0.84083  0.50001  Biso   1.000  C 
  C28      1.0000 0.69482  0.20240  0.50000  Biso   1.000  C 
  C29      1.0000 0.64341  0.16017  0.50001  Biso   1.000  C 
  C30      1.0000 0.19482  0.70241  0.50000  Biso   1.000  C 
  C31      1.0000 0.88886  0.34083  0.49998  Biso   1.000  C 
  C32      1.0000 0.33734  0.79916  0.50001  Biso   1.000  C 
  C33      1.0000 0.11207  0.63031  0.65122  Biso   1.000  C 
  C34      1.0000 0.64340  0.83983  0.00000  Biso   1.000  C 
  C35      1.0000 0.14340  0.33983  1.00000  Biso   1.000  C 
  C36      1.0000 0.33734  0.20083  0.00001  Biso   1.000  C 
  C37      1.0000 0.83734  0.29916  0.49999  Biso   1.000  C 
  C38      1.0000 0.88886  0.65917  0.99998  Biso   1.000  C 
  C39      1.0000 0.14341  0.66017  0.50000  Biso   1.000  C 
  C40      1.0000 0.11207  0.63031  0.34877  Biso   1.000  C 
  H1       1.0000 0.12108  0.36258  0.29556  Biso   1.000  H 
  H2       1.0000 0.41125  0.86330  0.79554  Biso   1.000  H 
  H3       1.0000 0.91125  0.36329  0.20446  Biso   1.000  H 
  H4       1.0000 0.91125  0.63671  0.29550  Biso   1.000  H 
  H5       1.0000 0.62108  0.86257  0.29557  Biso   1.000  H 
  H6       1.0000 0.62108  0.13741  0.20444  Biso   1.000  H 
  H7       1.0000 0.41125  0.13670  0.29554  Biso   1.000  H 
  H8       1.0000 0.12108  0.63742  0.20443  Biso   1.000  H 
  H9       1.0000 0.41125  0.13671  0.70448  Biso   1.000  H 
  H10      1.0000 0.12108  0.36258  0.70443  Biso   1.000  H 
  H11      1.0000 0.91125  0.36329  0.79551  Biso   1.000  H 
  H12      1.0000 0.62108  0.86258  0.70445  Biso   1.000  H 
  H13      1.0000 0.12108  0.63742  0.79555  Biso   1.000  H 
  H14      1.0000 0.41125  0.86329  0.20449  Biso   1.000  H 
  H15      1.0000 0.62108  0.13743  0.79557  Biso   1.000  H 
  H16      1.0000 0.91125  0.63671  0.70445  Biso   1.000  H 
  N1       1.0000 0.06644  0.41432  0.90659  Biso   1.000  N 
  N2       1.0000 0.06644  0.58568  0.40658  Biso   1.000  N 
  N3       1.0000 0.06644  0.58568  0.59339  Biso   1.000  N 
  N4       1.0000 0.96602  0.58557  0.09340  Biso   1.000  N 
  N5       1.0000 0.46602  0.08556  0.09342  Biso   1.000  N 
  N6       1.0000 0.56644  0.91433  0.90660  Biso   1.000  N 
  N7       1.0000 0.56644  0.91432  0.09341  Biso   1.000  N 
  N8       1.0000 0.06644  0.41432  0.09340  Biso   1.000  N 
  N9       1.0000 0.56644  0.08568  0.40660  Biso   1.000  N 
  N10      1.0000 0.46602  0.08557  0.90660  Biso   1.000  N 
  N11      1.0000 0.96602  0.41444  0.59340  Biso   1.000  N 
  N12      1.0000 0.96602  0.41444  0.40658  Biso   1.000  N 
  N13      1.0000 0.46602  0.91444  0.40660  Biso   1.000  N 
  N14      1.0000 0.46602  0.91444  0.59342  Biso   1.000  N 
  N15      1.0000 0.96602  0.58557  0.90658  Biso   1.000  N 
  N16      1.0000 0.56644  0.08569  0.59341  Biso   1.000  N 
  Zn1      1.0000 0.01627  0.50000  0.25000  Biso   1.000  Zn
  Zn2      1.0000 0.51627  1.00000  0.25000  Biso   1.000  Zn
  Zn3      1.0000 0.01627  0.50000  0.75000  Biso   1.000  Zn
  Zn4      1.0000 0.51627  0.00000  0.75001  Biso   1.000  Zn
