data_image0
_cell_length_a       25.9541
_cell_length_b       10.3515
_cell_length_c       7.33539
_cell_angle_alpha    90.0001
_cell_angle_beta     90.0005
_cell_angle_gamma    89.9996

_symmetry_space_group_name_H-M    "P 1"
_symmetry_int_tables_number       1

loop_
  _symmetry_equiv_pos_as_xyz
  'x, y, z'

loop_
  _atom_site_label
  _atom_site_occupancy
  _atom_site_fract_x
  _atom_site_fract_y
  _atom_site_fract_z
  _atom_site_thermal_displace_type
  _atom_site_B_iso_or_equiv
  _atom_site_type_symbol
  C1       1.0000 0.61129  0.85559  0.84905  Biso   1.000  C 
  C2       1.0000 0.24065  0.26214  0.00002  Biso   1.000  C 
  C3       1.0000 0.11129  0.35559  0.84907  Biso   1.000  C 
  C4       1.0000 0.42105  0.14390  0.84904  Biso   1.000  C 
  C5       1.0000 0.92105  0.64390  0.84905  Biso   1.000  C 
  C6       1.0000 0.38961  0.82624  0.49999  Biso   1.000  C 
  C7       1.0000 0.69442  0.21331  0.50000  Biso   1.000  C 
  C8       1.0000 0.64271  0.17455  0.50000  Biso   1.000  C 
  C9       1.0000 0.19442  0.71331  0.50000  Biso   1.000  C 
  C10      1.0000 0.88961  0.32624  0.50001  Biso   1.000  C 
  C11      1.0000 0.33783  0.78797  0.50000  Biso   1.000  C 
  C12      1.0000 0.11130  0.64442  0.65095  Biso   1.000  C 
  C13      1.0000 0.64270  0.82545  0.99999  Biso   1.000  C 
  C14      1.0000 0.14270  0.32545  0.00001  Biso   1.000  C 
  C15      1.0000 0.33782  0.21201  0.00001  Biso   1.000  C 
  C16      1.0000 0.83783  0.28797  0.50001  Biso   1.000  C 
  C17      1.0000 0.14271  0.67455  0.50000  Biso   1.000  C 
  C18      1.0000 0.11130  0.64442  0.34906  Biso   1.000  C 
  C19      1.0000 0.19440  0.28665  0.00001  Biso   1.000  C 
  C20      1.0000 0.92106  0.35611  0.65096  Biso   1.000  C 
  C21      1.0000 0.88959  0.67374  1.00000  Biso   1.000  C 
  C22      1.0000 0.24067  0.73783  0.50000  Biso   1.000  C 
  C23      1.0000 0.74067  0.23783  0.50000  Biso   1.000  C 
  C24      1.0000 0.79155  0.26375  0.50001  Biso   1.000  C 
  C25      1.0000 0.29155  0.76375  0.50000  Biso   1.000  C 
  C26      1.0000 0.79154  0.73621  0.99999  Biso   1.000  C 
  C27      1.0000 0.29154  0.23622  0.00001  Biso   1.000  C 
  C28      1.0000 0.74065  0.76214  0.99999  Biso   1.000  C 
  C29      1.0000 0.11128  0.35558  0.15095  Biso   1.000  C 
  C30      1.0000 0.83782  0.71201  0.99999  Biso   1.000  C 
  C31      1.0000 0.61129  0.14443  0.65094  Biso   1.000  C 
  C32      1.0000 0.42106  0.85610  0.65095  Biso   1.000  C 
  C33      1.0000 0.61128  0.85559  0.15093  Biso   1.000  C 
  C34      1.0000 0.42106  0.85610  0.34904  Biso   1.000  C 
  C35      1.0000 0.92106  0.35610  0.34905  Biso   1.000  C 
  C36      1.0000 0.61130  0.14442  0.34905  Biso   1.000  C 
  C37      1.0000 0.92105  0.64390  0.15096  Biso   1.000  C 
  C38      1.0000 0.69440  0.78666  0.99999  Biso   1.000  C 
  C39      1.0000 0.42105  0.14389  0.15095  Biso   1.000  C 
  C40      1.0000 0.38959  0.17374  1.00000  Biso   1.000  C 
  H1       1.0000 0.12033  0.34870  0.70500  Biso   1.000  H 
  H2       1.0000 0.91193  0.65080  0.70501  Biso   1.000  H 
  H3       1.0000 0.62034  0.15131  0.79501  Biso   1.000  H 
  H4       1.0000 0.41194  0.84920  0.20500  Biso   1.000  H 
  H5       1.0000 0.12035  0.65131  0.79502  Biso   1.000  H 
  H6       1.0000 0.62033  0.84871  0.70498  Biso   1.000  H 
  H7       1.0000 0.91194  0.34921  0.79500  Biso   1.000  H 
  H8       1.0000 0.41193  0.15080  0.70501  Biso   1.000  H 
  H9       1.0000 0.41193  0.15079  0.29498  Biso   1.000  H 
  H10      1.0000 0.62035  0.15129  0.20498  Biso   1.000  H 
  H11      1.0000 0.62033  0.84869  0.29500  Biso   1.000  H 
  H12      1.0000 0.91193  0.65079  0.29499  Biso   1.000  H 
  H13      1.0000 0.91194  0.34919  0.20502  Biso   1.000  H 
  H14      1.0000 0.41194  0.84921  0.79498  Biso   1.000  H 
  H15      1.0000 0.12033  0.34869  0.29502  Biso   1.000  H 
  H16      1.0000 0.12034  0.65130  0.20499  Biso   1.000  H 
  N1       1.0000 0.56565  0.09846  0.59332  Biso   1.000  N 
  N2       1.0000 0.96677  0.59828  0.90665  Biso   1.000  N 
  N3       1.0000 0.46677  0.90175  0.59334  Biso   1.000  N 
  N4       1.0000 0.46677  0.90175  0.40664  Biso   1.000  N 
  N5       1.0000 0.96677  0.40175  0.40666  Biso   1.000  N 
  N6       1.0000 0.96677  0.40175  0.59335  Biso   1.000  N 
  N7       1.0000 0.46676  0.09827  0.90664  Biso   1.000  N 
  N8       1.0000 0.56565  0.09846  0.40667  Biso   1.000  N 
  N9       1.0000 0.56564  0.90158  0.90667  Biso   1.000  N 
  N10      1.0000 0.56564  0.90157  0.09332  Biso   1.000  N 
  N11      1.0000 0.46677  0.09827  0.09334  Biso   1.000  N 
  N12      1.0000 0.96677  0.59827  0.09335  Biso   1.000  N 
  N13      1.0000 0.06565  0.59846  0.59333  Biso   1.000  N 
  N14      1.0000 0.06565  0.59846  0.40668  Biso   1.000  N 
  N15      1.0000 0.06564  0.40157  0.90668  Biso   1.000  N 
  N16      1.0000 0.06564  0.40157  0.09333  Biso   1.000  N 
  Zn1      1.0000 0.01629  0.50001  0.74998  Biso   1.000  Zn
  Zn2      1.0000 0.01628  0.50001  0.25000  Biso   1.000  Zn
  Zn3      1.0000 0.51628  0.00000  0.25001  Biso   1.000  Zn
  Zn4      1.0000 0.51628  0.00001  0.74999  Biso   1.000  Zn
