data_image0
_cell_length_a       26.35
_cell_length_b       8.69287
_cell_length_c       7.33792
_cell_angle_alpha    90.0001
_cell_angle_beta     90.0003
_cell_angle_gamma    90.0002

_symmetry_space_group_name_H-M    "P 1"
_symmetry_int_tables_number       1

loop_
  _symmetry_equiv_pos_as_xyz
  'x, y, z'

loop_
  _atom_site_label
  _atom_site_occupancy
  _atom_site_fract_x
  _atom_site_fract_y
  _atom_site_fract_z
  _atom_site_thermal_displace_type
  _atom_site_B_iso_or_equiv
  _atom_site_type_symbol
  C1       1.0000 0.61075  0.83389  0.84912  Biso   1.000  C 
  C2       1.0000 0.74067  0.24367  0.50001  Biso   1.000  C 
  C3       1.0000 0.79163  0.25718  0.50001  Biso   1.000  C 
  C4       1.0000 0.29163  0.75718  0.50000  Biso   1.000  C 
  C5       1.0000 0.79163  0.74282  0.99999  Biso   1.000  C 
  C6       1.0000 0.29163  0.24282  1.00000  Biso   1.000  C 
  C7       1.0000 0.74068  0.75633  0.99999  Biso   1.000  C 
  C8       1.0000 0.11075  0.33388  0.15088  Biso   1.000  C 
  C9       1.0000 0.83799  0.72954  0.99999  Biso   1.000  C 
  C10      1.0000 0.61075  0.16613  0.65087  Biso   1.000  C 
  C11      1.0000 0.42157  0.83419  0.65088  Biso   1.000  C 
  C12      1.0000 0.61075  0.83388  0.15087  Biso   1.000  C 
  C13      1.0000 0.42157  0.83419  0.34910  Biso   1.000  C 
  C14      1.0000 0.92157  0.33418  0.34912  Biso   1.000  C 
  C15      1.0000 0.61075  0.16612  0.34912  Biso   1.000  C 
  C16      1.0000 0.92157  0.66580  0.15089  Biso   1.000  C 
  C17      1.0000 0.42157  0.16581  0.15088  Biso   1.000  C 
  C18      1.0000 0.39003  0.19650  0.99999  Biso   1.000  C 
  C19      1.0000 0.24067  0.74367  0.50000  Biso   1.000  C 
  C20      1.0000 0.89003  0.69650  0.00000  Biso   1.000  C 
  C21      1.0000 0.69432  0.76977  0.99999  Biso   1.000  C 
  C22      1.0000 0.19432  0.26977  0.00000  Biso   1.000  C 
  C23      1.0000 0.24068  0.25633  0.00000  Biso   1.000  C 
  C24      1.0000 0.11075  0.33388  0.84913  Biso   1.000  C 
  C25      1.0000 0.42157  0.16581  0.84910  Biso   1.000  C 
  C26      1.0000 0.92158  0.66582  0.84912  Biso   1.000  C 
  C27      1.0000 0.39003  0.80350  0.49999  Biso   1.000  C 
  C28      1.0000 0.64228  0.19697  0.50000  Biso   1.000  C 
  C29      1.0000 0.19432  0.73024  0.50001  Biso   1.000  C 
  C30      1.0000 0.89003  0.30349  0.50001  Biso   1.000  C 
  C31      1.0000 0.69432  0.23024  0.50000  Biso   1.000  C 
  C32      1.0000 0.11075  0.66612  0.65088  Biso   1.000  C 
  C33      1.0000 0.64229  0.80304  0.99999  Biso   1.000  C 
  C34      1.0000 0.14229  0.30304  0.00001  Biso   1.000  C 
  C35      1.0000 0.33799  0.22955  1.00000  Biso   1.000  C 
  C36      1.0000 0.83799  0.27045  0.50001  Biso   1.000  C 
  C37      1.0000 0.14229  0.69697  0.50001  Biso   1.000  C 
  C38      1.0000 0.11075  0.66613  0.34913  Biso   1.000  C 
  C39      1.0000 0.33799  0.77046  0.49999  Biso   1.000  C 
  C40      1.0000 0.92157  0.33419  0.65090  Biso   1.000  C 
  H1       1.0000 0.61985  0.17308  0.20516  Biso   1.000  H 
  H2       1.0000 0.11984  0.67309  0.20517  Biso   1.000  H 
  H3       1.0000 0.11985  0.32692  0.29484  Biso   1.000  H 
  H4       1.0000 0.41245  0.82725  0.79482  Biso   1.000  H 
  H5       1.0000 0.91245  0.32724  0.20518  Biso   1.000  H 
  H6       1.0000 0.91245  0.67273  0.29483  Biso   1.000  H 
  H7       1.0000 0.61985  0.82691  0.29483  Biso   1.000  H 
  H8       1.0000 0.41246  0.17275  0.29482  Biso   1.000  H 
  H9       1.0000 0.91245  0.32726  0.79484  Biso   1.000  H 
  H10      1.0000 0.61985  0.82693  0.70515  Biso   1.000  H 
  H11      1.0000 0.11985  0.67308  0.79484  Biso   1.000  H 
  H12      1.0000 0.41245  0.82726  0.20517  Biso   1.000  H 
  H13      1.0000 0.61984  0.17310  0.79483  Biso   1.000  H 
  H14      1.0000 0.91246  0.67275  0.70518  Biso   1.000  H 
  H15      1.0000 0.11985  0.32692  0.70517  Biso   1.000  H 
  H16      1.0000 0.41245  0.17274  0.70517  Biso   1.000  H 
  N1       1.0000 0.06502  0.38268  0.09338  Biso   1.000  N 
  N2       1.0000 0.06502  0.38268  0.90663  Biso   1.000  N 
  N3       1.0000 0.06501  0.61732  0.40663  Biso   1.000  N 
  N4       1.0000 0.06501  0.61732  0.59338  Biso   1.000  N 
  N5       1.0000 0.96733  0.61717  0.09338  Biso   1.000  N 
  N6       1.0000 0.46733  0.11718  0.09337  Biso   1.000  N 
  N7       1.0000 0.56502  0.88268  0.09336  Biso   1.000  N 
  N8       1.0000 0.56502  0.88268  0.90662  Biso   1.000  N 
  N9       1.0000 0.96733  0.38282  0.59339  Biso   1.000  N 
  N10      1.0000 0.46733  0.11717  0.90661  Biso   1.000  N 
  N11      1.0000 0.96733  0.38281  0.40663  Biso   1.000  N 
  N12      1.0000 0.46733  0.88282  0.40661  Biso   1.000  N 
  N13      1.0000 0.46733  0.88282  0.59337  Biso   1.000  N 
  N14      1.0000 0.96733  0.61718  0.90663  Biso   1.000  N 
  N15      1.0000 0.56501  0.11733  0.59336  Biso   1.000  N 
  N16      1.0000 0.56501  0.11732  0.40662  Biso   1.000  N 
  Zn1      1.0000 0.51621  0.00000  0.25000  Biso   1.000  Zn
  Zn2      1.0000 0.01620  0.50001  0.75000  Biso   1.000  Zn
  Zn3      1.0000 0.01620  0.49999  0.25000  Biso   1.000  Zn
  Zn4      1.0000 0.51620  0.99999  0.74999  Biso   1.000  Zn
