data_image0
_cell_length_a       26.151
_cell_length_b       9.60912
_cell_length_c       7.33645
_cell_angle_alpha    90.0003
_cell_angle_beta     90.0006
_cell_angle_gamma    90.0004

_symmetry_space_group_name_H-M    "P 1"
_symmetry_int_tables_number       1

loop_
  _symmetry_equiv_pos_as_xyz
  'x, y, z'

loop_
  _atom_site_label
  _atom_site_occupancy
  _atom_site_fract_x
  _atom_site_fract_y
  _atom_site_fract_z
  _atom_site_thermal_displace_type
  _atom_site_B_iso_or_equiv
  _atom_site_type_symbol
  C1       1.0000 0.61101  0.84699  0.84908  Biso   1.000  C 
  C2       1.0000 0.24067  0.26011  0.00000  Biso   1.000  C 
  C3       1.0000 0.11101  0.34700  0.84910  Biso   1.000  C 
  C4       1.0000 0.42132  0.15268  0.84908  Biso   1.000  C 
  C5       1.0000 0.92132  0.65269  0.84909  Biso   1.000  C 
  C6       1.0000 0.38983  0.81718  0.49999  Biso   1.000  C 
  C7       1.0000 0.69434  0.21980  0.49999  Biso   1.000  C 
  C8       1.0000 0.64247  0.18335  0.49999  Biso   1.000  C 
  C9       1.0000 0.19434  0.71980  0.50000  Biso   1.000  C 
  C10      1.0000 0.88983  0.31718  0.50001  Biso   1.000  C 
  C11      1.0000 0.33794  0.78100  0.49999  Biso   1.000  C 
  C12      1.0000 0.11101  0.65301  0.65092  Biso   1.000  C 
  C13      1.0000 0.64247  0.81667  0.99999  Biso   1.000  C 
  C14      1.0000 0.14247  0.31667  0.00001  Biso   1.000  C 
  C15      1.0000 0.33795  0.21899  0.00001  Biso   1.000  C 
  C16      1.0000 0.83794  0.28098  0.50001  Biso   1.000  C 
  C17      1.0000 0.14247  0.68334  0.50000  Biso   1.000  C 
  C18      1.0000 0.11100  0.65302  0.34910  Biso   1.000  C 
  C19      1.0000 0.19434  0.28021  0.00001  Biso   1.000  C 
  C20      1.0000 0.92132  0.34731  0.65092  Biso   1.000  C 
  C21      1.0000 0.88983  0.68282  0.00000  Biso   1.000  C 
  C22      1.0000 0.24067  0.73988  0.50000  Biso   1.000  C 
  C23      1.0000 0.74067  0.23987  0.49999  Biso   1.000  C 
  C24      1.0000 0.79160  0.26104  0.50000  Biso   1.000  C 
  C25      1.0000 0.29160  0.76106  0.50000  Biso   1.000  C 
  C26      1.0000 0.79161  0.73895  0.99999  Biso   1.000  C 
  C27      1.0000 0.29161  0.23893  0.00001  Biso   1.000  C 
  C28      1.0000 0.74067  0.76013  0.99999  Biso   1.000  C 
  C29      1.0000 0.11101  0.34699  0.15092  Biso   1.000  C 
  C30      1.0000 0.83794  0.71901  0.99999  Biso   1.000  C 
  C31      1.0000 0.61100  0.15302  0.65090  Biso   1.000  C 
  C32      1.0000 0.42132  0.84731  0.65090  Biso   1.000  C 
  C33      1.0000 0.61101  0.84699  0.15090  Biso   1.000  C 
  C34      1.0000 0.42132  0.84731  0.34908  Biso   1.000  C 
  C35      1.0000 0.92132  0.34731  0.34909  Biso   1.000  C 
  C36      1.0000 0.61100  0.15301  0.34908  Biso   1.000  C 
  C37      1.0000 0.92132  0.65268  0.15092  Biso   1.000  C 
  C38      1.0000 0.69434  0.78021  0.99999  Biso   1.000  C 
  C39      1.0000 0.42132  0.15268  0.15091  Biso   1.000  C 
  C40      1.0000 0.38983  0.18281  0.00000  Biso   1.000  C 
  H1       1.0000 0.12007  0.34003  0.70508  Biso   1.000  H 
  H2       1.0000 0.91224  0.65964  0.70508  Biso   1.000  H 
  H3       1.0000 0.62007  0.15999  0.79492  Biso   1.000  H 
  H4       1.0000 0.41223  0.84038  0.20507  Biso   1.000  H 
  H5       1.0000 0.12007  0.65998  0.79493  Biso   1.000  H 
  H6       1.0000 0.62007  0.84003  0.70506  Biso   1.000  H 
  H7       1.0000 0.91223  0.34037  0.79493  Biso   1.000  H 
  H8       1.0000 0.41224  0.15962  0.70507  Biso   1.000  H 
  H9       1.0000 0.41224  0.15962  0.29492  Biso   1.000  H 
  H10      1.0000 0.62007  0.15998  0.20507  Biso   1.000  H 
  H11      1.0000 0.62007  0.84002  0.29491  Biso   1.000  H 
  H12      1.0000 0.91223  0.65962  0.29492  Biso   1.000  H 
  H13      1.0000 0.91223  0.34037  0.20508  Biso   1.000  H 
  H14      1.0000 0.41224  0.84038  0.79491  Biso   1.000  H 
  H15      1.0000 0.12007  0.34003  0.29494  Biso   1.000  H 
  H16      1.0000 0.12006  0.65998  0.20508  Biso   1.000  H 
  N1       1.0000 0.56532  0.10598  0.59334  Biso   1.000  N 
  N2       1.0000 0.96704  0.60588  0.90665  Biso   1.000  N 
  N3       1.0000 0.46704  0.89412  0.59335  Biso   1.000  N 
  N4       1.0000 0.46704  0.89412  0.40663  Biso   1.000  N 
  N5       1.0000 0.96704  0.39413  0.40665  Biso   1.000  N 
  N6       1.0000 0.96703  0.39413  0.59337  Biso   1.000  N 
  N7       1.0000 0.46704  0.10587  0.90663  Biso   1.000  N 
  N8       1.0000 0.56532  0.10597  0.40665  Biso   1.000  N 
  N9       1.0000 0.56532  0.89403  0.90664  Biso   1.000  N 
  N10      1.0000 0.56532  0.89402  0.09333  Biso   1.000  N 
  N11      1.0000 0.46704  0.10588  0.09335  Biso   1.000  N 
  N12      1.0000 0.96704  0.60587  0.09337  Biso   1.000  N 
  N13      1.0000 0.06532  0.60597  0.59335  Biso   1.000  N 
  N14      1.0000 0.06532  0.60597  0.40667  Biso   1.000  N 
  N15      1.0000 0.06532  0.39404  0.90667  Biso   1.000  N 
  N16      1.0000 0.06533  0.39403  0.09336  Biso   1.000  N 
  Zn1      1.0000 0.01624  0.50000  0.75002  Biso   1.000  Zn
  Zn2      1.0000 0.01624  0.49999  0.25001  Biso   1.000  Zn
  Zn3      1.0000 0.51624  1.00000  0.24999  Biso   1.000  Zn
  Zn4      1.0000 0.51624  1.00000  0.74999  Biso   1.000  Zn
