data_image0
_cell_length_a       26.7955
_cell_length_b       5.08766
_cell_length_c       7.18674
_cell_angle_alpha    90.001
_cell_angle_beta     89.9992
_cell_angle_gamma    90.0025

_symmetry_space_group_name_H-M    "P 1"
_symmetry_int_tables_number       1

loop_
  _symmetry_equiv_pos_as_xyz
  'x, y, z'

loop_
  _atom_site_label
  _atom_site_occupancy
  _atom_site_fract_x
  _atom_site_fract_y
  _atom_site_fract_z
  _atom_site_thermal_displace_type
  _atom_site_B_iso_or_equiv
  _atom_site_type_symbol
  C1       1.0000 0.61167  0.75278  0.84614  Biso   1.000  C 
  C2       1.0000 0.24127  0.23534  0.00001  Biso   1.000  C 
  C3       1.0000 0.11167  0.25275  0.84616  Biso   1.000  C 
  C4       1.0000 0.42066  0.24745  0.84616  Biso   1.000  C 
  C5       1.0000 0.92066  0.74742  0.84615  Biso   1.000  C 
  C6       1.0000 0.38860  0.72343  0.50000  Biso   1.000  C 
  C7       1.0000 0.88860  0.22342  0.50001  Biso   1.000  C 
  C8       1.0000 0.69579  0.28946  0.50000  Biso   1.000  C 
  C9       1.0000 0.64372  0.27649  0.50000  Biso   1.000  C 
  C10      1.0000 0.19579  0.78945  0.49999  Biso   1.000  C 
  C11      1.0000 0.14373  0.22353  0.00000  Biso   1.000  C 
  C12      1.0000 0.33654  0.28950  0.00002  Biso   1.000  C 
  C13      1.0000 0.83654  0.21052  0.50001  Biso   1.000  C 
  C14      1.0000 0.14372  0.77648  0.49999  Biso   1.000  C 
  C15      1.0000 0.33654  0.71054  0.50000  Biso   1.000  C 
  C16      1.0000 0.11167  0.74724  0.65385  Biso   1.000  C 
  C17      1.0000 0.64373  0.72354  0.99999  Biso   1.000  C 
  C18      1.0000 0.38860  0.27657  0.00001  Biso   1.000  C 
  C19      1.0000 0.19579  0.21060  0.00001  Biso   1.000  C 
  C20      1.0000 0.88860  0.77655  1.00000  Biso   1.000  C 
  C21      1.0000 0.69579  0.71060  0.99999  Biso   1.000  C 
  C22      1.0000 0.24126  0.76472  0.49999  Biso   1.000  C 
  C23      1.0000 0.74126  0.26472  0.50000  Biso   1.000  C 
  C24      1.0000 0.79107  0.23524  0.50000  Biso   1.000  C 
  C25      1.0000 0.29107  0.73525  0.50000  Biso   1.000  C 
  C26      1.0000 0.79107  0.76478  0.99999  Biso   1.000  C 
  C27      1.0000 0.29107  0.26480  0.00002  Biso   1.000  C 
  C28      1.0000 0.61166  0.24728  0.65384  Biso   1.000  C 
  C29      1.0000 0.74127  0.73533  0.99999  Biso   1.000  C 
  C30      1.0000 0.11167  0.25275  0.15385  Biso   1.000  C 
  C31      1.0000 0.83654  0.78947  0.99999  Biso   1.000  C 
  C32      1.0000 0.92066  0.25254  0.34616  Biso   1.000  C 
  C33      1.0000 0.61167  0.24725  0.34615  Biso   1.000  C 
  C34      1.0000 0.92066  0.74741  0.15384  Biso   1.000  C 
  C35      1.0000 0.42066  0.24743  0.15385  Biso   1.000  C 
  C36      1.0000 0.42066  0.75257  0.65384  Biso   1.000  C 
  C37      1.0000 0.61167  0.75275  0.15383  Biso   1.000  C 
  C38      1.0000 0.11166  0.74725  0.34615  Biso   1.000  C 
  C39      1.0000 0.42066  0.75255  0.34615  Biso   1.000  C 
  C40      1.0000 0.92066  0.25254  0.65385  Biso   1.000  C 
  H1       1.0000 0.91118  0.75206  0.69992  Biso   1.000  H 
  H2       1.0000 0.12116  0.75193  0.80007  Biso   1.000  H 
  H3       1.0000 0.41117  0.74791  0.19992  Biso   1.000  H 
  H4       1.0000 0.91117  0.24791  0.80008  Biso   1.000  H 
  H5       1.0000 0.62116  0.74811  0.69992  Biso   1.000  H 
  H6       1.0000 0.41117  0.25209  0.69993  Biso   1.000  H 
  H7       1.0000 0.12116  0.24807  0.69993  Biso   1.000  H 
  H8       1.0000 0.62115  0.25198  0.80006  Biso   1.000  H 
  H9       1.0000 0.12116  0.24807  0.30007  Biso   1.000  H 
  H10      1.0000 0.12116  0.75194  0.19993  Biso   1.000  H 
  H11      1.0000 0.62116  0.25192  0.19993  Biso   1.000  H 
  H12      1.0000 0.41117  0.25206  0.30008  Biso   1.000  H 
  H13      1.0000 0.91117  0.75204  0.30007  Biso   1.000  H 
  H14      1.0000 0.62116  0.74805  0.30006  Biso   1.000  H 
  H15      1.0000 0.41117  0.74794  0.80008  Biso   1.000  H 
  H16      1.0000 0.91117  0.24791  0.19993  Biso   1.000  H 
  N1       1.0000 0.96733  0.30174  0.40457  Biso   1.000  N 
  N2       1.0000 0.96734  0.30174  0.59544  Biso   1.000  N 
  N3       1.0000 0.56499  0.19794  0.40456  Biso   1.000  N 
  N4       1.0000 0.56499  0.19796  0.59543  Biso   1.000  N 
  N5       1.0000 0.96734  0.69821  0.90457  Biso   1.000  N 
  N6       1.0000 0.46733  0.80176  0.59543  Biso   1.000  N 
  N7       1.0000 0.46734  0.19823  0.90457  Biso   1.000  N 
  N8       1.0000 0.46733  0.80175  0.40456  Biso   1.000  N 
  N9       1.0000 0.06499  0.69792  0.59544  Biso   1.000  N 
  N10      1.0000 0.56499  0.80205  0.09542  Biso   1.000  N 
  N11      1.0000 0.06499  0.69793  0.40457  Biso   1.000  N 
  N12      1.0000 0.06499  0.30205  0.90456  Biso   1.000  N 
  N13      1.0000 0.06499  0.30205  0.09544  Biso   1.000  N 
  N14      1.0000 0.56499  0.80208  0.90455  Biso   1.000  N 
  N15      1.0000 0.46734  0.19822  0.09543  Biso   1.000  N 
  N16      1.0000 0.96734  0.69821  0.09544  Biso   1.000  N 
  Zn1      1.0000 0.01613  0.49997  0.75001  Biso   1.000  Zn
  Zn2      1.0000 0.01613  0.49998  0.25001  Biso   1.000  Zn
  Zn3      1.0000 0.51613  0.99998  0.24999  Biso   1.000  Zn
  Zn4      1.0000 0.51613  1.00000  0.74999  Biso   1.000  Zn
