data_image0
_cell_length_a       21.2546
_cell_length_b       18.7367
_cell_length_c       7.29156
_cell_angle_alpha    89.9968
_cell_angle_beta     89.9979
_cell_angle_gamma    89.9996

_symmetry_space_group_name_H-M    "P 1"
_symmetry_int_tables_number       1

loop_
  _symmetry_equiv_pos_as_xyz
  'x, y, z'

loop_
  _atom_site_label
  _atom_site_occupancy
  _atom_site_fract_x
  _atom_site_fract_y
  _atom_site_fract_z
  _atom_site_thermal_displace_type
  _atom_site_B_iso_or_equiv
  _atom_site_type_symbol
  C1       1.0000 0.61694  0.89503  0.84802  Biso   1.000  C 
  C2       1.0000 0.24189  0.27332  0.00002  Biso   1.000  C 
  C3       1.0000 0.11693  0.39502  0.84807  Biso   1.000  C 
  C4       1.0000 0.41540  0.10530  0.84803  Biso   1.000  C 
  C5       1.0000 0.91540  0.60530  0.84804  Biso   1.000  C 
  C6       1.0000 0.38448  0.86403  0.49999  Biso   1.000  C 
  C7       1.0000 0.69785  0.18434  0.49997  Biso   1.000  C 
  C8       1.0000 0.64791  0.13558  0.49998  Biso   1.000  C 
  C9       1.0000 0.19787  0.68431  0.50003  Biso   1.000  C 
  C10      1.0000 0.88447  0.36403  0.49999  Biso   1.000  C 
  C11      1.0000 0.33449  0.81532  0.50001  Biso   1.000  C 
  C12      1.0000 0.11696  0.60494  0.65199  Biso   1.000  C 
  C13      1.0000 0.64792  0.86443  0.99998  Biso   1.000  C 
  C14      1.0000 0.14792  0.36443  0.00002  Biso   1.000  C 
  C15      1.0000 0.33448  0.18468  1.00000  Biso   1.000  C 
  C16      1.0000 0.83447  0.31533  0.50000  Biso   1.000  C 
  C17      1.0000 0.14793  0.63555  0.50003  Biso   1.000  C 
  C18      1.0000 0.11695  0.60497  0.34807  Biso   1.000  C 
  C19      1.0000 0.19786  0.31567  0.00004  Biso   1.000  C 
  C20      1.0000 0.91540  0.39468  0.65196  Biso   1.000  C 
  C21      1.0000 0.88448  0.63597  0.99999  Biso   1.000  C 
  C22      1.0000 0.24190  0.72666  0.50002  Biso   1.000  C 
  C23      1.0000 0.74188  0.22669  0.49998  Biso   1.000  C 
  C24      1.0000 0.79033  0.27312  0.49998  Biso   1.000  C 
  C25      1.0000 0.29035  0.77310  0.50001  Biso   1.000  C 
  C26      1.0000 0.79034  0.72689  0.99999  Biso   1.000  C 
  C27      1.0000 0.29034  0.22689  0.00002  Biso   1.000  C 
  C28      1.0000 0.74189  0.77332  0.99999  Biso   1.000  C 
  C29      1.0000 0.11695  0.39504  0.15199  Biso   1.000  C 
  C30      1.0000 0.83448  0.68468  0.99999  Biso   1.000  C 
  C31      1.0000 0.61693  0.10497  0.65193  Biso   1.000  C 
  C32      1.0000 0.41540  0.89469  0.65195  Biso   1.000  C 
  C33      1.0000 0.61695  0.89504  0.15194  Biso   1.000  C 
  C34      1.0000 0.41541  0.89470  0.34803  Biso   1.000  C 
  C35      1.0000 0.91540  0.39471  0.34805  Biso   1.000  C 
  C36      1.0000 0.61694  0.10498  0.34802  Biso   1.000  C 
  C37      1.0000 0.91541  0.60532  0.15196  Biso   1.000  C 
  C38      1.0000 0.69786  0.81567  0.99998  Biso   1.000  C 
  C39      1.0000 0.41541  0.10531  0.15195  Biso   1.000  C 
  C40      1.0000 0.38448  0.13597  1.00000  Biso   1.000  C 
  H1       1.0000 0.12564  0.38666  0.70299  Biso   1.000  H 
  H2       1.0000 0.90673  0.61373  0.70296  Biso   1.000  H 
  H3       1.0000 0.62565  0.11332  0.79700  Biso   1.000  H 
  H4       1.0000 0.40675  0.88625  0.20295  Biso   1.000  H 
  H5       1.0000 0.12568  0.61328  0.79706  Biso   1.000  H 
  H6       1.0000 0.62565  0.88667  0.70294  Biso   1.000  H 
  H7       1.0000 0.90674  0.38623  0.79703  Biso   1.000  H 
  H8       1.0000 0.40673  0.11374  0.70296  Biso   1.000  H 
  H9       1.0000 0.40676  0.11376  0.29703  Biso   1.000  H 
  H10      1.0000 0.62565  0.11333  0.20295  Biso   1.000  H 
  H11      1.0000 0.62567  0.88669  0.29702  Biso   1.000  H 
  H12      1.0000 0.90675  0.61377  0.29704  Biso   1.000  H 
  H13      1.0000 0.90673  0.38628  0.20298  Biso   1.000  H 
  H14      1.0000 0.40674  0.88626  0.79703  Biso   1.000  H 
  H15      1.0000 0.12568  0.38671  0.29706  Biso   1.000  H 
  H16      1.0000 0.12566  0.61333  0.20299  Biso   1.000  H 
  N1       1.0000 0.57173  0.06024  0.59370  Biso   1.000  N 
  N2       1.0000 0.96053  0.56045  0.90626  Biso   1.000  N 
  N3       1.0000 0.46053  0.93955  0.59374  Biso   1.000  N 
  N4       1.0000 0.46053  0.93955  0.40624  Biso   1.000  N 
  N5       1.0000 0.96053  0.43956  0.40628  Biso   1.000  N 
  N6       1.0000 0.96053  0.43954  0.59378  Biso   1.000  N 
  N7       1.0000 0.46052  0.06045  0.90622  Biso   1.000  N 
  N8       1.0000 0.57173  0.06025  0.40624  Biso   1.000  N 
  N9       1.0000 0.57173  0.93976  0.90624  Biso   1.000  N 
  N10      1.0000 0.57174  0.93977  0.09370  Biso   1.000  N 
  N11      1.0000 0.46053  0.06046  0.09373  Biso   1.000  N 
  N12      1.0000 0.96053  0.56046  0.09377  Biso   1.000  N 
  N13      1.0000 0.07174  0.56022  0.59376  Biso   1.000  N 
  N14      1.0000 0.07174  0.56024  0.40630  Biso   1.000  N 
  N15      1.0000 0.07173  0.43975  0.90631  Biso   1.000  N 
  N16      1.0000 0.07174  0.43976  0.09377  Biso   1.000  N 
  Zn1      1.0000 0.01608  0.49999  0.75004  Biso   1.000  Zn
  Zn2      1.0000 0.01608  0.50001  0.25003  Biso   1.000  Zn
  Zn3      1.0000 0.51608  0.00000  0.24997  Biso   1.000  Zn
  Zn4      1.0000 0.51607  1.00000  0.74996  Biso   1.000  Zn
