data_image0
_cell_length_a       26.5786
_cell_length_b       6.82868
_cell_length_c       7.39937
_cell_angle_alpha    90.0007
_cell_angle_beta     90
_cell_angle_gamma    90.0005

_symmetry_space_group_name_H-M    "P 1"
_symmetry_int_tables_number       1

loop_
  _symmetry_equiv_pos_as_xyz
  'x, y, z'

loop_
  _atom_site_label
  _atom_site_occupancy
  _atom_site_fract_x
  _atom_site_fract_y
  _atom_site_fract_z
  _atom_site_thermal_displace_type
  _atom_site_B_iso_or_equiv
  _atom_site_type_symbol
  C1       1.0000 0.61047  0.79496  0.85037  Biso   1.000  C 
  C2       1.0000 0.74083  0.25426  0.50000  Biso   1.000  C 
  C3       1.0000 0.79151  0.24456  0.50001  Biso   1.000  C 
  C4       1.0000 0.29151  0.74456  0.50000  Biso   1.000  C 
  C5       1.0000 0.79151  0.75547  0.99999  Biso   1.000  C 
  C6       1.0000 0.29151  0.25547  0.00001  Biso   1.000  C 
  C7       1.0000 0.11047  0.29496  0.14963  Biso   1.000  C 
  C8       1.0000 0.83767  0.76251  1.00000  Biso   1.000  C 
  C9       1.0000 0.61046  0.20506  0.64961  Biso   1.000  C 
  C10      1.0000 0.74083  0.74576  0.99999  Biso   1.000  C 
  C11      1.0000 0.61046  0.79494  0.14961  Biso   1.000  C 
  C12      1.0000 0.42186  0.79469  0.35038  Biso   1.000  C 
  C13      1.0000 0.92186  0.29469  0.35040  Biso   1.000  C 
  C14      1.0000 0.61046  0.20504  0.35038  Biso   1.000  C 
  C15      1.0000 0.92186  0.70529  0.14962  Biso   1.000  C 
  C16      1.0000 0.42186  0.20530  0.14961  Biso   1.000  C 
  C17      1.0000 0.42186  0.79470  0.64960  Biso   1.000  C 
  C18      1.0000 0.89008  0.73845  1.00000  Biso   1.000  C 
  C19      1.0000 0.24083  0.75426  0.50000  Biso   1.000  C 
  C20      1.0000 0.11046  0.70505  0.35039  Biso   1.000  C 
  C21      1.0000 0.39009  0.23845  1.00000  Biso   1.000  C 
  C22      1.0000 0.19468  0.23836  0.00001  Biso   1.000  C 
  C23      1.0000 0.24084  0.24576  0.00001  Biso   1.000  C 
  C24      1.0000 0.11047  0.29494  0.85039  Biso   1.000  C 
  C25      1.0000 0.42186  0.20530  0.85038  Biso   1.000  C 
  C26      1.0000 0.92186  0.70531  0.85039  Biso   1.000  C 
  C27      1.0000 0.39008  0.76155  0.49999  Biso   1.000  C 
  C28      1.0000 0.19468  0.76166  0.50000  Biso   1.000  C 
  C29      1.0000 0.89008  0.26155  0.50001  Biso   1.000  C 
  C30      1.0000 0.69468  0.26166  0.50000  Biso   1.000  C 
  C31      1.0000 0.64225  0.23798  0.50000  Biso   1.000  C 
  C32      1.0000 0.64225  0.76202  0.99999  Biso   1.000  C 
  C33      1.0000 0.14225  0.26203  0.00001  Biso   1.000  C 
  C34      1.0000 0.33767  0.26251  0.00000  Biso   1.000  C 
  C35      1.0000 0.83766  0.23750  0.50001  Biso   1.000  C 
  C36      1.0000 0.14225  0.73797  0.50000  Biso   1.000  C 
  C37      1.0000 0.33766  0.73749  0.49999  Biso   1.000  C 
  C38      1.0000 0.92186  0.29470  0.64962  Biso   1.000  C 
  C39      1.0000 0.11046  0.70504  0.64962  Biso   1.000  C 
  C40      1.0000 0.69468  0.73836  0.99999  Biso   1.000  C 
  H1       1.0000 0.91272  0.71330  0.29232  Biso   1.000  H 
  H2       1.0000 0.41273  0.21333  0.29232  Biso   1.000  H 
  H3       1.0000 0.61961  0.21314  0.20768  Biso   1.000  H 
  H4       1.0000 0.11961  0.71318  0.20769  Biso   1.000  H 
  H5       1.0000 0.11961  0.28685  0.29233  Biso   1.000  H 
  H6       1.0000 0.41273  0.78668  0.79231  Biso   1.000  H 
  H7       1.0000 0.91273  0.28666  0.20769  Biso   1.000  H 
  H8       1.0000 0.61961  0.78682  0.29231  Biso   1.000  H 
  H9       1.0000 0.11961  0.71315  0.79232  Biso   1.000  H 
  H10      1.0000 0.41273  0.78667  0.20766  Biso   1.000  H 
  H11      1.0000 0.61961  0.21319  0.79231  Biso   1.000  H 
  H12      1.0000 0.91273  0.71334  0.70767  Biso   1.000  H 
  H13      1.0000 0.11961  0.28683  0.70770  Biso   1.000  H 
  H14      1.0000 0.41273  0.21332  0.70767  Biso   1.000  H 
  H15      1.0000 0.61961  0.78686  0.70768  Biso   1.000  H 
  H16      1.0000 0.91272  0.28669  0.79233  Biso   1.000  H 
  N1       1.0000 0.56450  0.85049  0.90721  Biso   1.000  N 
  N2       1.0000 0.06450  0.35048  0.09279  Biso   1.000  N 
  N3       1.0000 0.06450  0.35048  0.90723  Biso   1.000  N 
  N4       1.0000 0.06450  0.64951  0.40723  Biso   1.000  N 
  N5       1.0000 0.06450  0.64950  0.59279  Biso   1.000  N 
  N6       1.0000 0.96780  0.64950  0.09278  Biso   1.000  N 
  N7       1.0000 0.56450  0.85048  0.09277  Biso   1.000  N 
  N8       1.0000 0.46780  0.14951  0.09277  Biso   1.000  N 
  N9       1.0000 0.96780  0.35047  0.40723  Biso   1.000  N 
  N10      1.0000 0.46780  0.14952  0.90722  Biso   1.000  N 
  N11      1.0000 0.46780  0.85047  0.40722  Biso   1.000  N 
  N12      1.0000 0.46780  0.85047  0.59276  Biso   1.000  N 
  N13      1.0000 0.96780  0.64952  0.90723  Biso   1.000  N 
  N14      1.0000 0.56450  0.14952  0.59277  Biso   1.000  N 
  N15      1.0000 0.56450  0.14950  0.40721  Biso   1.000  N 
  N16      1.0000 0.96780  0.35047  0.59278  Biso   1.000  N 
  Zn1      1.0000 0.01613  0.49999  0.75001  Biso   1.000  Zn
  Zn2      1.0000 0.01613  0.50000  0.25000  Biso   1.000  Zn
  Zn3      1.0000 0.51613  0.99998  0.24999  Biso   1.000  Zn
  Zn4      1.0000 0.51613  0.00000  0.75000  Biso   1.000  Zn
