data_image0
_cell_length_a       26.2459
_cell_length_b       9.19583
_cell_length_c       7.34638
_cell_angle_alpha    90.0013
_cell_angle_beta     90
_cell_angle_gamma    90.0005

_symmetry_space_group_name_H-M    "P 1"
_symmetry_int_tables_number       1

loop_
  _symmetry_equiv_pos_as_xyz
  'x, y, z'

loop_
  _atom_site_label
  _atom_site_occupancy
  _atom_site_fract_x
  _atom_site_fract_y
  _atom_site_fract_z
  _atom_site_thermal_displace_type
  _atom_site_B_iso_or_equiv
  _atom_site_type_symbol
  C1       1.0000 0.61088  0.84155  0.84929  Biso   1.000  C 
  C2       1.0000 0.74067  0.24132  0.50000  Biso   1.000  C 
  C3       1.0000 0.79164  0.25920  0.50000  Biso   1.000  C 
  C4       1.0000 0.29164  0.75921  0.50000  Biso   1.000  C 
  C5       1.0000 0.79164  0.74080  1.00000  Biso   1.000  C 
  C6       1.0000 0.29164  0.24080  0.00001  Biso   1.000  C 
  C7       1.0000 0.74068  0.75869  0.99999  Biso   1.000  C 
  C8       1.0000 0.11088  0.34155  0.15071  Biso   1.000  C 
  C9       1.0000 0.83800  0.72363  0.00000  Biso   1.000  C 
  C10      1.0000 0.61088  0.15846  0.65069  Biso   1.000  C 
  C11      1.0000 0.42144  0.84195  0.65070  Biso   1.000  C 
  C12      1.0000 0.61088  0.84154  0.15068  Biso   1.000  C 
  C13      1.0000 0.42144  0.84195  0.34929  Biso   1.000  C 
  C14      1.0000 0.92144  0.34195  0.34929  Biso   1.000  C 
  C15      1.0000 0.61088  0.15845  0.34930  Biso   1.000  C 
  C16      1.0000 0.92144  0.65804  0.15072  Biso   1.000  C 
  C17      1.0000 0.42144  0.15804  0.15071  Biso   1.000  C 
  C18      1.0000 0.38994  0.18852  0.99999  Biso   1.000  C 
  C19      1.0000 0.24067  0.74132  0.50000  Biso   1.000  C 
  C20      1.0000 0.88994  0.68852  0.00001  Biso   1.000  C 
  C21      1.0000 0.69431  0.77581  0.99999  Biso   1.000  C 
  C22      1.0000 0.19431  0.27581  0.00002  Biso   1.000  C 
  C23      1.0000 0.24068  0.25869  0.00001  Biso   1.000  C 
  C24      1.0000 0.11088  0.34155  0.84931  Biso   1.000  C 
  C25      1.0000 0.42144  0.15804  0.84929  Biso   1.000  C 
  C26      1.0000 0.92144  0.65804  0.84930  Biso   1.000  C 
  C27      1.0000 0.38994  0.81147  0.50000  Biso   1.000  C 
  C28      1.0000 0.64237  0.18906  0.49999  Biso   1.000  C 
  C29      1.0000 0.19431  0.72421  0.50000  Biso   1.000  C 
  C30      1.0000 0.88994  0.31147  0.49999  Biso   1.000  C 
  C31      1.0000 0.69431  0.22420  0.50000  Biso   1.000  C 
  C32      1.0000 0.11088  0.65845  0.65070  Biso   1.000  C 
  C33      1.0000 0.64237  0.81094  0.99998  Biso   1.000  C 
  C34      1.0000 0.14237  0.31095  0.00001  Biso   1.000  C 
  C35      1.0000 0.33800  0.22363  0.00000  Biso   1.000  C 
  C36      1.0000 0.83800  0.27637  0.50000  Biso   1.000  C 
  C37      1.0000 0.14237  0.68907  0.50000  Biso   1.000  C 
  C38      1.0000 0.11088  0.65846  0.34931  Biso   1.000  C 
  C39      1.0000 0.33800  0.77638  0.50000  Biso   1.000  C 
  C40      1.0000 0.92144  0.34196  0.65071  Biso   1.000  C 
  H1       1.0000 0.61997  0.16540  0.20550  Biso   1.000  H 
  H2       1.0000 0.11997  0.66543  0.20551  Biso   1.000  H 
  H3       1.0000 0.11998  0.33460  0.29450  Biso   1.000  H 
  H4       1.0000 0.41233  0.83504  0.79448  Biso   1.000  H 
  H5       1.0000 0.91233  0.33504  0.20551  Biso   1.000  H 
  H6       1.0000 0.91233  0.66495  0.29449  Biso   1.000  H 
  H7       1.0000 0.61998  0.83459  0.29448  Biso   1.000  H 
  H8       1.0000 0.41233  0.16495  0.29449  Biso   1.000  H 
  H9       1.0000 0.91233  0.33505  0.79449  Biso   1.000  H 
  H10      1.0000 0.61998  0.83460  0.70550  Biso   1.000  H 
  H11      1.0000 0.11998  0.66540  0.79450  Biso   1.000  H 
  H12      1.0000 0.41233  0.83504  0.20551  Biso   1.000  H 
  H13      1.0000 0.61997  0.16542  0.79449  Biso   1.000  H 
  H14      1.0000 0.91233  0.66496  0.70552  Biso   1.000  H 
  H15      1.0000 0.11998  0.33459  0.70552  Biso   1.000  H 
  H16      1.0000 0.41233  0.16496  0.70551  Biso   1.000  H 
  N1       1.0000 0.06518  0.38938  0.09326  Biso   1.000  N 
  N2       1.0000 0.06518  0.38938  0.90675  Biso   1.000  N 
  N3       1.0000 0.06518  0.61062  0.40675  Biso   1.000  N 
  N4       1.0000 0.06518  0.61062  0.59326  Biso   1.000  N 
  N5       1.0000 0.96716  0.61039  0.09326  Biso   1.000  N 
  N6       1.0000 0.46716  0.11038  0.09325  Biso   1.000  N 
  N7       1.0000 0.56518  0.88938  0.09324  Biso   1.000  N 
  N8       1.0000 0.56518  0.88938  0.90674  Biso   1.000  N 
  N9       1.0000 0.96716  0.38960  0.59326  Biso   1.000  N 
  N10      1.0000 0.46716  0.11039  0.90674  Biso   1.000  N 
  N11      1.0000 0.96716  0.38960  0.40675  Biso   1.000  N 
  N12      1.0000 0.46716  0.88960  0.40674  Biso   1.000  N 
  N13      1.0000 0.46716  0.88960  0.59325  Biso   1.000  N 
  N14      1.0000 0.96716  0.61039  0.90675  Biso   1.000  N 
  N15      1.0000 0.56518  0.11062  0.59325  Biso   1.000  N 
  N16      1.0000 0.56518  0.11062  0.40674  Biso   1.000  N 
  Zn1      1.0000 0.51622  0.99998  0.24999  Biso   1.000  Zn
  Zn2      1.0000 0.01622  0.49999  0.75000  Biso   1.000  Zn
  Zn3      1.0000 0.01622  0.50000  0.25000  Biso   1.000  Zn
  Zn4      1.0000 0.51622  0.99999  0.74999  Biso   1.000  Zn
