data_image0
_cell_length_a       20.1165
_cell_length_b       20.103
_cell_length_c       7.98576
_cell_angle_alpha    89.999
_cell_angle_beta     89.9975
_cell_angle_gamma    90

_symmetry_space_group_name_H-M    "P 1"
_symmetry_int_tables_number       1

loop_
  _symmetry_equiv_pos_as_xyz
  'x, y, z'

loop_
  _atom_site_label
  _atom_site_occupancy
  _atom_site_fract_x
  _atom_site_fract_y
  _atom_site_fract_z
  _atom_site_thermal_displace_type
  _atom_site_B_iso_or_equiv
  _atom_site_type_symbol
  C1       1.0000 0.61761  0.89822  0.86182  Biso   1.000  C 
  C2       1.0000 0.24216  0.27392  0.00005  Biso   1.000  C 
  C3       1.0000 0.11760  0.39822  0.86195  Biso   1.000  C 
  C4       1.0000 0.41471  0.10178  0.86185  Biso   1.000  C 
  C5       1.0000 0.91471  0.60177  0.86192  Biso   1.000  C 
  C6       1.0000 0.38355  0.86699  0.49997  Biso   1.000  C 
  C7       1.0000 0.64879  0.13297  0.49994  Biso   1.000  C 
  C8       1.0000 0.19867  0.68276  0.50005  Biso   1.000  C 
  C9       1.0000 0.88354  0.36701  0.50004  Biso   1.000  C 
  C10      1.0000 0.69866  0.18277  0.49995  Biso   1.000  C 
  C11      1.0000 0.11762  0.60176  0.63818  Biso   1.000  C 
  C12      1.0000 0.64880  0.86703  0.99994  Biso   1.000  C 
  C13      1.0000 0.14880  0.36703  0.00007  Biso   1.000  C 
  C14      1.0000 0.33368  0.18281  1.00000  Biso   1.000  C 
  C15      1.0000 0.83367  0.31720  0.50001  Biso   1.000  C 
  C16      1.0000 0.14880  0.63296  0.50006  Biso   1.000  C 
  C17      1.0000 0.33369  0.81718  0.49999  Biso   1.000  C 
  C18      1.0000 0.91471  0.39820  0.63816  Biso   1.000  C 
  C19      1.0000 0.19867  0.31723  0.00006  Biso   1.000  C 
  C20      1.0000 0.69867  0.81723  0.99995  Biso   1.000  C 
  C21      1.0000 0.11760  0.60178  0.36195  Biso   1.000  C 
  C22      1.0000 0.24217  0.72607  0.50004  Biso   1.000  C 
  C23      1.0000 0.74215  0.22608  0.49996  Biso   1.000  C 
  C24      1.0000 0.79019  0.27388  0.49998  Biso   1.000  C 
  C25      1.0000 0.29020  0.77387  0.50002  Biso   1.000  C 
  C26      1.0000 0.79019  0.72612  0.99998  Biso   1.000  C 
  C27      1.0000 0.29019  0.22612  0.00003  Biso   1.000  C 
  C28      1.0000 0.11762  0.39823  0.13819  Biso   1.000  C 
  C29      1.0000 0.83368  0.68281  0.00001  Biso   1.000  C 
  C30      1.0000 0.61760  0.10177  0.63805  Biso   1.000  C 
  C31      1.0000 0.74216  0.77392  0.99996  Biso   1.000  C 
  C32      1.0000 0.61761  0.89823  0.13805  Biso   1.000  C 
  C33      1.0000 0.41472  0.89821  0.36184  Biso   1.000  C 
  C34      1.0000 0.91471  0.39823  0.36193  Biso   1.000  C 
  C35      1.0000 0.61760  0.10178  0.36182  Biso   1.000  C 
  C36      1.0000 0.91472  0.60180  0.13815  Biso   1.000  C 
  C37      1.0000 0.41472  0.10179  0.13808  Biso   1.000  C 
  C38      1.0000 0.38354  0.13300  0.99997  Biso   1.000  C 
  C39      1.0000 0.41472  0.89821  0.63807  Biso   1.000  C 
  C40      1.0000 0.88355  0.63300  0.00003  Biso   1.000  C 
  H1       1.0000 0.62609  0.88968  0.72925  Biso   1.000  H 
  H2       1.0000 0.40620  0.11032  0.72928  Biso   1.000  H 
  H3       1.0000 0.12608  0.38967  0.72938  Biso   1.000  H 
  H4       1.0000 0.90621  0.61029  0.72935  Biso   1.000  H 
  H5       1.0000 0.62609  0.11031  0.77062  Biso   1.000  H 
  H6       1.0000 0.40623  0.88967  0.22928  Biso   1.000  H 
  H7       1.0000 0.12610  0.61030  0.77075  Biso   1.000  H 
  H8       1.0000 0.90623  0.38966  0.77073  Biso   1.000  H 
  H9       1.0000 0.62610  0.88969  0.27062  Biso   1.000  H 
  H10      1.0000 0.90623  0.61035  0.27072  Biso   1.000  H 
  H11      1.0000 0.90621  0.38971  0.22936  Biso   1.000  H 
  H12      1.0000 0.40623  0.88968  0.77065  Biso   1.000  H 
  H13      1.0000 0.12610  0.38970  0.27076  Biso   1.000  H 
  H14      1.0000 0.12608  0.61033  0.22938  Biso   1.000  H 
  H15      1.0000 0.62609  0.11033  0.22925  Biso   1.000  H 
  H16      1.0000 0.40624  0.11032  0.27065  Biso   1.000  H 
  N1       1.0000 0.57247  0.05656  0.41328  Biso   1.000  N 
  N2       1.0000 0.57247  0.05656  0.58658  Biso   1.000  N 
  N3       1.0000 0.95983  0.55654  0.91340  Biso   1.000  N 
  N4       1.0000 0.45983  0.94345  0.58660  Biso   1.000  N 
  N5       1.0000 0.45983  0.94345  0.41330  Biso   1.000  N 
  N6       1.0000 0.95982  0.44346  0.41341  Biso   1.000  N 
  N7       1.0000 0.45982  0.05655  0.91330  Biso   1.000  N 
  N8       1.0000 0.95983  0.44344  0.58670  Biso   1.000  N 
  N9       1.0000 0.45983  0.05655  0.08659  Biso   1.000  N 
  N10      1.0000 0.57248  0.94344  0.08658  Biso   1.000  N 
  N11      1.0000 0.95983  0.55656  0.08670  Biso   1.000  N 
  N12      1.0000 0.07248  0.55655  0.58671  Biso   1.000  N 
  N13      1.0000 0.07247  0.55656  0.41341  Biso   1.000  N 
  N14      1.0000 0.07247  0.44344  0.91342  Biso   1.000  N 
  N15      1.0000 0.07248  0.44345  0.08672  Biso   1.000  N 
  N16      1.0000 0.57247  0.94344  0.91329  Biso   1.000  N 
  Zn1      1.0000 0.01615  0.50001  0.25005  Biso   1.000  Zn
  Zn2      1.0000 0.51615  1.00000  0.24995  Biso   1.000  Zn
  Zn3      1.0000 0.01615  0.49999  0.75005  Biso   1.000  Zn
  Zn4      1.0000 0.51615  1.00000  0.74995  Biso   1.000  Zn
