data_image0
_cell_length_a       19.9974
_cell_length_b       20.0871
_cell_length_c       7.42189
_cell_angle_alpha    90.0015
_cell_angle_beta     89.9965
_cell_angle_gamma    89.9997

_symmetry_space_group_name_H-M    "P 1"
_symmetry_int_tables_number       1

loop_
  _symmetry_equiv_pos_as_xyz
  'x, y, z'

loop_
  _atom_site_label
  _atom_site_occupancy
  _atom_site_fract_x
  _atom_site_fract_y
  _atom_site_fract_z
  _atom_site_thermal_displace_type
  _atom_site_B_iso_or_equiv
  _atom_site_type_symbol
  C1       1.0000 0.61851  0.89748  0.85088  Biso   1.000  C 
  C2       1.0000 0.74216  0.22634  0.50005  Biso   1.000  C 
  C3       1.0000 0.78991  0.27391  0.50003  Biso   1.000  C 
  C4       1.0000 0.28991  0.77390  0.49998  Biso   1.000  C 
  C5       1.0000 0.78991  0.72609  0.00001  Biso   1.000  C 
  C6       1.0000 0.28990  0.22609  0.99998  Biso   1.000  C 
  C7       1.0000 0.74216  0.77366  0.00002  Biso   1.000  C 
  C8       1.0000 0.11851  0.39749  0.14912  Biso   1.000  C 
  C9       1.0000 0.83337  0.68289  0.00001  Biso   1.000  C 
  C10      1.0000 0.61853  0.10249  0.64921  Biso   1.000  C 
  C11      1.0000 0.41384  0.89744  0.64917  Biso   1.000  C 
  C12      1.0000 0.61852  0.89751  0.14919  Biso   1.000  C 
  C13      1.0000 0.41384  0.89745  0.35083  Biso   1.000  C 
  C14      1.0000 0.91384  0.39745  0.35083  Biso   1.000  C 
  C15      1.0000 0.61852  0.10251  0.35090  Biso   1.000  C 
  C16      1.0000 0.91384  0.60256  0.14915  Biso   1.000  C 
  C17      1.0000 0.41384  0.10257  0.14918  Biso   1.000  C 
  C18      1.0000 0.38296  0.13344  0.00002  Biso   1.000  C 
  C19      1.0000 0.24216  0.72634  0.49996  Biso   1.000  C 
  C20      1.0000 0.88296  0.63345  0.99999  Biso   1.000  C 
  C21      1.0000 0.69879  0.81697  0.00004  Biso   1.000  C 
  C22      1.0000 0.19878  0.31696  0.99996  Biso   1.000  C 
  C23      1.0000 0.24215  0.27366  0.99997  Biso   1.000  C 
  C24      1.0000 0.11852  0.39749  0.85081  Biso   1.000  C 
  C25      1.0000 0.41383  0.10254  0.85085  Biso   1.000  C 
  C26      1.0000 0.91383  0.60255  0.85082  Biso   1.000  C 
  C27      1.0000 0.38296  0.86656  0.49999  Biso   1.000  C 
  C28      1.0000 0.64935  0.13344  0.50007  Biso   1.000  C 
  C29      1.0000 0.19879  0.68304  0.49994  Biso   1.000  C 
  C30      1.0000 0.88297  0.36655  0.50000  Biso   1.000  C 
  C31      1.0000 0.69879  0.18303  0.50007  Biso   1.000  C 
  C32      1.0000 0.11850  0.60254  0.64911  Biso   1.000  C 
  C33      1.0000 0.64934  0.86655  0.00005  Biso   1.000  C 
  C34      1.0000 0.14934  0.36654  0.99996  Biso   1.000  C 
  C35      1.0000 0.33337  0.18289  1.00000  Biso   1.000  C 
  C36      1.0000 0.83337  0.31711  0.50002  Biso   1.000  C 
  C37      1.0000 0.14934  0.63347  0.49995  Biso   1.000  C 
  C38      1.0000 0.11852  0.60252  0.35079  Biso   1.000  C 
  C39      1.0000 0.33337  0.81711  0.49998  Biso   1.000  C 
  C40      1.0000 0.91385  0.39743  0.64915  Biso   1.000  C 
  H1       1.0000 0.62705  0.11106  0.20835  Biso   1.000  H 
  H2       1.0000 0.12705  0.61105  0.20824  Biso   1.000  H 
  H3       1.0000 0.12703  0.38895  0.29167  Biso   1.000  H 
  H4       1.0000 0.40533  0.88885  0.79170  Biso   1.000  H 
  H5       1.0000 0.90532  0.38886  0.20829  Biso   1.000  H 
  H6       1.0000 0.90534  0.61115  0.29171  Biso   1.000  H 
  H7       1.0000 0.62706  0.88898  0.29174  Biso   1.000  H 
  H8       1.0000 0.40534  0.11116  0.29172  Biso   1.000  H 
  H9       1.0000 0.90536  0.38884  0.79172  Biso   1.000  H 
  H10      1.0000 0.62704  0.88892  0.70833  Biso   1.000  H 
  H11      1.0000 0.12702  0.61110  0.79165  Biso   1.000  H 
  H12      1.0000 0.40534  0.88887  0.20828  Biso   1.000  H 
  H13      1.0000 0.62706  0.11102  0.79176  Biso   1.000  H 
  H14      1.0000 0.90533  0.61113  0.70828  Biso   1.000  H 
  H15      1.0000 0.12705  0.38895  0.70826  Biso   1.000  H 
  H16      1.0000 0.40532  0.11111  0.70829  Biso   1.000  H 
  N1       1.0000 0.07358  0.44265  0.09224  Biso   1.000  N 
  N2       1.0000 0.07359  0.44265  0.90769  Biso   1.000  N 
  N3       1.0000 0.07357  0.55737  0.40769  Biso   1.000  N 
  N4       1.0000 0.07357  0.55738  0.59224  Biso   1.000  N 
  N5       1.0000 0.95884  0.55747  0.09227  Biso   1.000  N 
  N6       1.0000 0.45885  0.05748  0.09232  Biso   1.000  N 
  N7       1.0000 0.57359  0.94265  0.09230  Biso   1.000  N 
  N8       1.0000 0.57358  0.94264  0.90775  Biso   1.000  N 
  N9       1.0000 0.95886  0.44252  0.59227  Biso   1.000  N 
  N10      1.0000 0.45884  0.05746  0.90774  Biso   1.000  N 
  N11      1.0000 0.95885  0.44253  0.40769  Biso   1.000  N 
  N12      1.0000 0.45885  0.94254  0.40772  Biso   1.000  N 
  N13      1.0000 0.45884  0.94253  0.59230  Biso   1.000  N 
  N14      1.0000 0.95884  0.55746  0.90769  Biso   1.000  N 
  N15      1.0000 0.57359  0.05734  0.59231  Biso   1.000  N 
  N16      1.0000 0.57359  0.05736  0.40776  Biso   1.000  N 
  Zn1      1.0000 0.51621  0.00001  0.25001  Biso   1.000  Zn
  Zn2      1.0000 0.01622  0.50000  0.75000  Biso   1.000  Zn
  Zn3      1.0000 0.01621  0.50000  0.25001  Biso   1.000  Zn
  Zn4      1.0000 0.51621  0.99998  0.75001  Biso   1.000  Zn
