data_image0
_cell_length_a       24.1649
_cell_length_b       14.5962
_cell_length_c       7.30329
_cell_angle_alpha    90.0002
_cell_angle_beta     89.9995
_cell_angle_gamma    90

_symmetry_space_group_name_H-M    "P 1"
_symmetry_int_tables_number       1

loop_
  _symmetry_equiv_pos_as_xyz
  'x, y, z'

loop_
  _atom_site_label
  _atom_site_occupancy
  _atom_site_fract_x
  _atom_site_fract_y
  _atom_site_fract_z
  _atom_site_thermal_displace_type
  _atom_site_B_iso_or_equiv
  _atom_site_type_symbol
  C1       1.0000 0.61356  0.88372  0.84829  Biso   1.000  C 
  C2       1.0000 0.24121  0.27050  0.00001  Biso   1.000  C 
  C3       1.0000 0.11356  0.38372  0.84829  Biso   1.000  C 
  C4       1.0000 0.41876  0.11606  0.84829  Biso   1.000  C 
  C5       1.0000 0.91876  0.61606  0.84828  Biso   1.000  C 
  C6       1.0000 0.38748  0.85408  0.50000  Biso   1.000  C 
  C7       1.0000 0.88748  0.35407  0.50000  Biso   1.000  C 
  C8       1.0000 0.69584  0.19178  0.50000  Biso   1.000  C 
  C9       1.0000 0.64484  0.14619  0.50000  Biso   1.000  C 
  C10      1.0000 0.19583  0.69178  0.50000  Biso   1.000  C 
  C11      1.0000 0.14483  0.64619  0.50000  Biso   1.000  C 
  C12      1.0000 0.33646  0.80852  0.50000  Biso   1.000  C 
  C13      1.0000 0.11356  0.61627  0.65171  Biso   1.000  C 
  C14      1.0000 0.64484  0.85381  1.00000  Biso   1.000  C 
  C15      1.0000 0.14484  0.35381  0.00000  Biso   1.000  C 
  C16      1.0000 0.33647  0.19148  0.00000  Biso   1.000  C 
  C17      1.0000 0.83647  0.30852  0.50000  Biso   1.000  C 
  C18      1.0000 0.88748  0.64593  0.99999  Biso   1.000  C 
  C19      1.0000 0.19584  0.30823  0.00001  Biso   1.000  C 
  C20      1.0000 0.11356  0.61628  0.34829  Biso   1.000  C 
  C21      1.0000 0.38748  0.14593  0.00000  Biso   1.000  C 
  C22      1.0000 0.24120  0.72951  0.50000  Biso   1.000  C 
  C23      1.0000 0.74121  0.22950  0.50000  Biso   1.000  C 
  C24      1.0000 0.79110  0.27079  0.50000  Biso   1.000  C 
  C25      1.0000 0.29109  0.77080  0.50000  Biso   1.000  C 
  C26      1.0000 0.79110  0.72921  1.00000  Biso   1.000  C 
  C27      1.0000 0.29110  0.22921  0.00001  Biso   1.000  C 
  C28      1.0000 0.61356  0.11627  0.65171  Biso   1.000  C 
  C29      1.0000 0.74121  0.77050  1.00000  Biso   1.000  C 
  C30      1.0000 0.11356  0.38373  0.15171  Biso   1.000  C 
  C31      1.0000 0.83647  0.69149  0.99999  Biso   1.000  C 
  C32      1.0000 0.41876  0.11607  0.15172  Biso   1.000  C 
  C33      1.0000 0.41876  0.88393  0.65171  Biso   1.000  C 
  C34      1.0000 0.61356  0.88373  0.15171  Biso   1.000  C 
  C35      1.0000 0.41876  0.88393  0.34829  Biso   1.000  C 
  C36      1.0000 0.91876  0.38394  0.34828  Biso   1.000  C 
  C37      1.0000 0.61356  0.11627  0.34829  Biso   1.000  C 
  C38      1.0000 0.91877  0.38393  0.65171  Biso   1.000  C 
  C39      1.0000 0.91877  0.61607  0.15171  Biso   1.000  C 
  C40      1.0000 0.69584  0.80822  0.00000  Biso   1.000  C 
  H1       1.0000 0.62250  0.12388  0.79654  Biso   1.000  H 
  H2       1.0000 0.40979  0.87636  0.20347  Biso   1.000  H 
  H3       1.0000 0.12250  0.62387  0.79654  Biso   1.000  H 
  H4       1.0000 0.62250  0.87612  0.70346  Biso   1.000  H 
  H5       1.0000 0.90980  0.37635  0.79653  Biso   1.000  H 
  H6       1.0000 0.12250  0.37612  0.70346  Biso   1.000  H 
  H7       1.0000 0.40979  0.12363  0.70347  Biso   1.000  H 
  H8       1.0000 0.90979  0.62363  0.70347  Biso   1.000  H 
  H9       1.0000 0.12250  0.62389  0.20346  Biso   1.000  H 
  H10      1.0000 0.12250  0.37613  0.29654  Biso   1.000  H 
  H11      1.0000 0.40979  0.12364  0.29653  Biso   1.000  H 
  H12      1.0000 0.62250  0.12388  0.20346  Biso   1.000  H 
  H13      1.0000 0.62250  0.87612  0.29654  Biso   1.000  H 
  H14      1.0000 0.90980  0.62365  0.29652  Biso   1.000  H 
  H15      1.0000 0.90979  0.37637  0.20347  Biso   1.000  H 
  H16      1.0000 0.40979  0.87636  0.79653  Biso   1.000  H 
  N1       1.0000 0.96441  0.57218  0.90639  Biso   1.000  N 
  N2       1.0000 0.46441  0.92781  0.59361  Biso   1.000  N 
  N3       1.0000 0.46441  0.92781  0.40639  Biso   1.000  N 
  N4       1.0000 0.96441  0.42782  0.40639  Biso   1.000  N 
  N5       1.0000 0.96442  0.42781  0.59361  Biso   1.000  N 
  N6       1.0000 0.56794  0.07229  0.40639  Biso   1.000  N 
  N7       1.0000 0.46441  0.07218  0.90639  Biso   1.000  N 
  N8       1.0000 0.56794  0.07229  0.59361  Biso   1.000  N 
  N9       1.0000 0.06794  0.42771  0.09361  Biso   1.000  N 
  N10      1.0000 0.56794  0.92770  0.09361  Biso   1.000  N 
  N11      1.0000 0.56794  0.92770  0.90639  Biso   1.000  N 
  N12      1.0000 0.46441  0.07218  0.09361  Biso   1.000  N 
  N13      1.0000 0.96441  0.57219  0.09361  Biso   1.000  N 
  N14      1.0000 0.06794  0.57229  0.59361  Biso   1.000  N 
  N15      1.0000 0.06794  0.57230  0.40639  Biso   1.000  N 
  N16      1.0000 0.06795  0.42770  0.90639  Biso   1.000  N 
  Zn1      1.0000 0.51620  1.00000  0.25000  Biso   1.000  Zn
  Zn2      1.0000 0.01620  0.49999  0.75000  Biso   1.000  Zn
  Zn3      1.0000 0.01620  0.50000  0.25000  Biso   1.000  Zn
  Zn4      1.0000 0.51620  1.00000  0.75000  Biso   1.000  Zn
