data_image0
_cell_length_a       26.5443
_cell_length_b       7.23436
_cell_length_c       7.37642
_cell_angle_alpha    89.9996
_cell_angle_beta     90.0004
_cell_angle_gamma    90.0022

_symmetry_space_group_name_H-M    "P 1"
_symmetry_int_tables_number       1

loop_
  _symmetry_equiv_pos_as_xyz
  'x, y, z'

loop_
  _atom_site_label
  _atom_site_occupancy
  _atom_site_fract_x
  _atom_site_fract_y
  _atom_site_fract_z
  _atom_site_thermal_displace_type
  _atom_site_B_iso_or_equiv
  _atom_site_type_symbol
  C1       1.0000 0.61046  0.80499  0.84991  Biso   1.000  C 
  C2       1.0000 0.74078  0.25159  0.50000  Biso   1.000  C 
  C3       1.0000 0.79157  0.24776  0.50000  Biso   1.000  C 
  C4       1.0000 0.29157  0.74775  0.50000  Biso   1.000  C 
  C5       1.0000 0.79157  0.75225  0.99999  Biso   1.000  C 
  C6       1.0000 0.29157  0.25224  0.00001  Biso   1.000  C 
  C7       1.0000 0.11046  0.30498  0.15009  Biso   1.000  C 
  C8       1.0000 0.83781  0.75416  0.99999  Biso   1.000  C 
  C9       1.0000 0.61046  0.19504  0.65007  Biso   1.000  C 
  C10      1.0000 0.74078  0.74841  0.99999  Biso   1.000  C 
  C11      1.0000 0.61046  0.80497  0.15008  Biso   1.000  C 
  C12      1.0000 0.42187  0.80479  0.34990  Biso   1.000  C 
  C13      1.0000 0.92186  0.30479  0.34990  Biso   1.000  C 
  C14      1.0000 0.61046  0.19502  0.34992  Biso   1.000  C 
  C15      1.0000 0.92186  0.69519  0.15010  Biso   1.000  C 
  C16      1.0000 0.42186  0.19519  0.15010  Biso   1.000  C 
  C17      1.0000 0.42187  0.80480  0.65010  Biso   1.000  C 
  C18      1.0000 0.89016  0.72773  0.99999  Biso   1.000  C 
  C19      1.0000 0.24078  0.75158  0.50000  Biso   1.000  C 
  C20      1.0000 0.11046  0.69503  0.34993  Biso   1.000  C 
  C21      1.0000 0.39016  0.22772  0.00000  Biso   1.000  C 
  C22      1.0000 0.19453  0.24643  0.00001  Biso   1.000  C 
  C23      1.0000 0.24078  0.24841  0.00001  Biso   1.000  C 
  C24      1.0000 0.11046  0.30497  0.84992  Biso   1.000  C 
  C25      1.0000 0.42186  0.19520  0.84990  Biso   1.000  C 
  C26      1.0000 0.92186  0.69520  0.84990  Biso   1.000  C 
  C27      1.0000 0.39016  0.77227  0.50000  Biso   1.000  C 
  C28      1.0000 0.19453  0.75358  0.50000  Biso   1.000  C 
  C29      1.0000 0.89016  0.27227  0.50000  Biso   1.000  C 
  C30      1.0000 0.69453  0.25359  0.50000  Biso   1.000  C 
  C31      1.0000 0.64217  0.22738  0.50000  Biso   1.000  C 
  C32      1.0000 0.64218  0.77263  1.00000  Biso   1.000  C 
  C33      1.0000 0.14218  0.27263  0.00000  Biso   1.000  C 
  C34      1.0000 0.33781  0.25415  0.00001  Biso   1.000  C 
  C35      1.0000 0.83781  0.24584  0.50000  Biso   1.000  C 
  C36      1.0000 0.14217  0.72738  0.50000  Biso   1.000  C 
  C37      1.0000 0.33781  0.74583  0.50000  Biso   1.000  C 
  C38      1.0000 0.92187  0.30480  0.65010  Biso   1.000  C 
  C39      1.0000 0.11046  0.69503  0.65008  Biso   1.000  C 
  C40      1.0000 0.69453  0.74642  1.00000  Biso   1.000  C 
  H1       1.0000 0.91274  0.70291  0.29327  Biso   1.000  H 
  H2       1.0000 0.41274  0.20293  0.29327  Biso   1.000  H 
  H3       1.0000 0.61958  0.20275  0.20675  Biso   1.000  H 
  H4       1.0000 0.11957  0.70276  0.20676  Biso   1.000  H 
  H5       1.0000 0.11957  0.29726  0.29326  Biso   1.000  H 
  H6       1.0000 0.41274  0.79707  0.79327  Biso   1.000  H 
  H7       1.0000 0.91274  0.29706  0.20674  Biso   1.000  H 
  H8       1.0000 0.61958  0.79724  0.29325  Biso   1.000  H 
  H9       1.0000 0.11957  0.70276  0.79324  Biso   1.000  H 
  H10      1.0000 0.41274  0.79706  0.20673  Biso   1.000  H 
  H11      1.0000 0.61957  0.20277  0.79324  Biso   1.000  H 
  H12      1.0000 0.91274  0.70294  0.70673  Biso   1.000  H 
  H13      1.0000 0.11958  0.29725  0.70675  Biso   1.000  H 
  H14      1.0000 0.41273  0.20292  0.70673  Biso   1.000  H 
  H15      1.0000 0.61958  0.79727  0.70674  Biso   1.000  H 
  H16      1.0000 0.91274  0.29707  0.79327  Biso   1.000  H 
  N1       1.0000 0.56456  0.85871  0.90698  Biso   1.000  N 
  N2       1.0000 0.06456  0.35871  0.09302  Biso   1.000  N 
  N3       1.0000 0.06456  0.35870  0.90699  Biso   1.000  N 
  N4       1.0000 0.06456  0.64129  0.40699  Biso   1.000  N 
  N5       1.0000 0.06456  0.64129  0.59302  Biso   1.000  N 
  N6       1.0000 0.96774  0.64125  0.09302  Biso   1.000  N 
  N7       1.0000 0.56456  0.85870  0.09301  Biso   1.000  N 
  N8       1.0000 0.46774  0.14125  0.09302  Biso   1.000  N 
  N9       1.0000 0.96774  0.35873  0.40698  Biso   1.000  N 
  N10      1.0000 0.46774  0.14125  0.90697  Biso   1.000  N 
  N11      1.0000 0.46774  0.85873  0.40698  Biso   1.000  N 
  N12      1.0000 0.46774  0.85874  0.59302  Biso   1.000  N 
  N13      1.0000 0.96774  0.64126  0.90698  Biso   1.000  N 
  N14      1.0000 0.56456  0.14130  0.59301  Biso   1.000  N 
  N15      1.0000 0.56456  0.14129  0.40698  Biso   1.000  N 
  N16      1.0000 0.96774  0.35874  0.59302  Biso   1.000  N 
  Zn1      1.0000 0.01617  0.50001  0.74999  Biso   1.000  Zn
  Zn2      1.0000 0.01617  0.50002  0.25002  Biso   1.000  Zn
  Zn3      1.0000 0.51618  0.00002  0.25000  Biso   1.000  Zn
  Zn4      1.0000 0.51617  0.00001  0.74998  Biso   1.000  Zn
