data_image0
_cell_length_a       20.0614
_cell_length_b       20.0533
_cell_length_c       7.6418
_cell_angle_alpha    89.9984
_cell_angle_beta     89.997
_cell_angle_gamma    89.9999

_symmetry_space_group_name_H-M    "P 1"
_symmetry_int_tables_number       1

loop_
  _symmetry_equiv_pos_as_xyz
  'x, y, z'

loop_
  _atom_site_label
  _atom_site_occupancy
  _atom_site_fract_x
  _atom_site_fract_y
  _atom_site_fract_z
  _atom_site_thermal_displace_type
  _atom_site_B_iso_or_equiv
  _atom_site_type_symbol
  C1       1.0000 0.61797  0.89772  0.85529  Biso   1.000  C 
  C2       1.0000 0.74223  0.22614  0.49996  Biso   1.000  C 
  C3       1.0000 0.79018  0.27375  0.49998  Biso   1.000  C 
  C4       1.0000 0.29020  0.77373  0.50002  Biso   1.000  C 
  C5       1.0000 0.79019  0.72626  0.99998  Biso   1.000  C 
  C6       1.0000 0.29019  0.22626  0.00003  Biso   1.000  C 
  C7       1.0000 0.74224  0.77387  0.99996  Biso   1.000  C 
  C8       1.0000 0.11798  0.39773  0.14472  Biso   1.000  C 
  C9       1.0000 0.83370  0.68301  1.00000  Biso   1.000  C 
  C10      1.0000 0.61797  0.10227  0.64458  Biso   1.000  C 
  C11      1.0000 0.41433  0.89773  0.64461  Biso   1.000  C 
  C12      1.0000 0.61798  0.89773  0.14458  Biso   1.000  C 
  C13      1.0000 0.41433  0.89772  0.35532  Biso   1.000  C 
  C14      1.0000 0.91432  0.39775  0.35539  Biso   1.000  C 
  C15      1.0000 0.61797  0.10228  0.35529  Biso   1.000  C 
  C16      1.0000 0.91433  0.60229  0.14467  Biso   1.000  C 
  C17      1.0000 0.41433  0.10227  0.14462  Biso   1.000  C 
  C18      1.0000 0.38336  0.13336  0.99999  Biso   1.000  C 
  C19      1.0000 0.24224  0.72613  0.50004  Biso   1.000  C 
  C20      1.0000 0.88337  0.63336  0.00002  Biso   1.000  C 
  C21      1.0000 0.69869  0.81708  0.99993  Biso   1.000  C 
  C22      1.0000 0.19869  0.31708  0.00007  Biso   1.000  C 
  C23      1.0000 0.24224  0.27386  0.00006  Biso   1.000  C 
  C24      1.0000 0.11797  0.39772  0.85543  Biso   1.000  C 
  C25      1.0000 0.41432  0.10227  0.85533  Biso   1.000  C 
  C26      1.0000 0.91432  0.60226  0.85539  Biso   1.000  C 
  C27      1.0000 0.38337  0.86664  0.49998  Biso   1.000  C 
  C28      1.0000 0.64897  0.13333  0.49993  Biso   1.000  C 
  C29      1.0000 0.19869  0.68291  0.50005  Biso   1.000  C 
  C30      1.0000 0.88336  0.36665  0.50002  Biso   1.000  C 
  C31      1.0000 0.69869  0.18292  0.49994  Biso   1.000  C 
  C32      1.0000 0.11798  0.60226  0.64471  Biso   1.000  C 
  C33      1.0000 0.64897  0.86668  0.99993  Biso   1.000  C 
  C34      1.0000 0.14897  0.36668  0.00008  Biso   1.000  C 
  C35      1.0000 0.33370  0.18300  0.00001  Biso   1.000  C 
  C36      1.0000 0.83369  0.31700  0.50000  Biso   1.000  C 
  C37      1.0000 0.14897  0.63332  0.50006  Biso   1.000  C 
  C38      1.0000 0.11797  0.60228  0.35542  Biso   1.000  C 
  C39      1.0000 0.33371  0.81698  0.50001  Biso   1.000  C 
  C40      1.0000 0.91433  0.39771  0.64468  Biso   1.000  C 
  H1       1.0000 0.62648  0.11083  0.21680  Biso   1.000  H 
  H2       1.0000 0.12647  0.61083  0.21692  Biso   1.000  H 
  H3       1.0000 0.12650  0.38921  0.28321  Biso   1.000  H 
  H4       1.0000 0.40583  0.88918  0.78310  Biso   1.000  H 
  H5       1.0000 0.90582  0.38922  0.21690  Biso   1.000  H 
  H6       1.0000 0.90584  0.61086  0.28315  Biso   1.000  H 
  H7       1.0000 0.62649  0.88919  0.28307  Biso   1.000  H 
  H8       1.0000 0.40585  0.11082  0.28310  Biso   1.000  H 
  H9       1.0000 0.90583  0.38915  0.78316  Biso   1.000  H 
  H10      1.0000 0.62648  0.88918  0.71680  Biso   1.000  H 
  H11      1.0000 0.12649  0.61079  0.78320  Biso   1.000  H 
  H12      1.0000 0.40583  0.88916  0.21684  Biso   1.000  H 
  H13      1.0000 0.62648  0.11081  0.78307  Biso   1.000  H 
  H14      1.0000 0.90582  0.61079  0.71690  Biso   1.000  H 
  H15      1.0000 0.12647  0.38917  0.71693  Biso   1.000  H 
  H16      1.0000 0.40580  0.11082  0.71685  Biso   1.000  H 
  N1       1.0000 0.07294  0.44293  0.09004  Biso   1.000  N 
  N2       1.0000 0.07293  0.44292  0.91009  Biso   1.000  N 
  N3       1.0000 0.07293  0.55708  0.41009  Biso   1.000  N 
  N4       1.0000 0.07294  0.55707  0.59004  Biso   1.000  N 
  N5       1.0000 0.95934  0.55706  0.09003  Biso   1.000  N 
  N6       1.0000 0.45934  0.05705  0.08993  Biso   1.000  N 
  N7       1.0000 0.57294  0.94293  0.08991  Biso   1.000  N 
  N8       1.0000 0.57293  0.94292  0.90996  Biso   1.000  N 
  N9       1.0000 0.95934  0.44294  0.59003  Biso   1.000  N 
  N10      1.0000 0.45933  0.05705  0.90997  Biso   1.000  N 
  N11      1.0000 0.95933  0.44296  0.41008  Biso   1.000  N 
  N12      1.0000 0.45934  0.94295  0.40997  Biso   1.000  N 
  N13      1.0000 0.45934  0.94295  0.58992  Biso   1.000  N 
  N14      1.0000 0.95933  0.55704  0.91007  Biso   1.000  N 
  N15      1.0000 0.57293  0.05708  0.58991  Biso   1.000  N 
  N16      1.0000 0.57293  0.05708  0.40996  Biso   1.000  N 
  Zn1      1.0000 0.51615  0.00000  0.24994  Biso   1.000  Zn
  Zn2      1.0000 0.01615  0.49999  0.75006  Biso   1.000  Zn
  Zn3      1.0000 0.01616  0.50000  0.25006  Biso   1.000  Zn
  Zn4      1.0000 0.51615  0.99999  0.74994  Biso   1.000  Zn
