data_image0
_cell_length_a       19.8585
_cell_length_b       20.2174
_cell_length_c       7.32912
_cell_angle_alpha    89.9907
_cell_angle_beta     90.0015
_cell_angle_gamma    89.9997

_symmetry_space_group_name_H-M    "P 1"
_symmetry_int_tables_number       1

loop_
  _symmetry_equiv_pos_as_xyz
  'x, y, z'

loop_
  _atom_site_label
  _atom_site_occupancy
  _atom_site_fract_x
  _atom_site_fract_y
  _atom_site_fract_z
  _atom_site_thermal_displace_type
  _atom_site_B_iso_or_equiv
  _atom_site_type_symbol
  C1       1.0000 0.61887  0.89781  0.84888  Biso   1.000  C 
  C2       1.0000 0.74276  0.22550  0.50002  Biso   1.000  C 
  C3       1.0000 0.79032  0.27313  0.50002  Biso   1.000  C 
  C4       1.0000 0.29031  0.77316  0.50001  Biso   1.000  C 
  C5       1.0000 0.79031  0.72686  0.99999  Biso   1.000  C 
  C6       1.0000 0.29031  0.22686  0.99998  Biso   1.000  C 
  C7       1.0000 0.74274  0.77447  0.00003  Biso   1.000  C 
  C8       1.0000 0.11890  0.39782  0.15114  Biso   1.000  C 
  C9       1.0000 0.83352  0.68346  0.99998  Biso   1.000  C 
  C10      1.0000 0.61886  0.10220  0.65116  Biso   1.000  C 
  C11      1.0000 0.41333  0.89724  0.65116  Biso   1.000  C 
  C12      1.0000 0.61890  0.89782  0.15117  Biso   1.000  C 
  C13      1.0000 0.41338  0.89720  0.34889  Biso   1.000  C 
  C14      1.0000 0.91337  0.39720  0.34886  Biso   1.000  C 
  C15      1.0000 0.61894  0.10214  0.34888  Biso   1.000  C 
  C16      1.0000 0.91339  0.60280  0.15111  Biso   1.000  C 
  C17      1.0000 0.41340  0.10282  0.15112  Biso   1.000  C 
  C18      1.0000 0.38275  0.13381  0.99997  Biso   1.000  C 
  C19      1.0000 0.24274  0.72554  0.49998  Biso   1.000  C 
  C20      1.0000 0.88274  0.63381  0.99998  Biso   1.000  C 
  C21      1.0000 0.69937  0.81773  0.00006  Biso   1.000  C 
  C22      1.0000 0.19938  0.31773  0.99999  Biso   1.000  C 
  C23      1.0000 0.24274  0.27448  0.99998  Biso   1.000  C 
  C24      1.0000 0.11887  0.39781  0.84885  Biso   1.000  C 
  C25      1.0000 0.41334  0.10277  0.84885  Biso   1.000  C 
  C26      1.0000 0.91334  0.60278  0.84884  Biso   1.000  C 
  C27      1.0000 0.38273  0.86621  0.50004  Biso   1.000  C 
  C28      1.0000 0.64980  0.13293  0.50002  Biso   1.000  C 
  C29      1.0000 0.19938  0.68228  0.49997  Biso   1.000  C 
  C30      1.0000 0.88275  0.36619  0.50001  Biso   1.000  C 
  C31      1.0000 0.69940  0.18224  0.50003  Biso   1.000  C 
  C32      1.0000 0.11886  0.60221  0.65113  Biso   1.000  C 
  C33      1.0000 0.64979  0.86705  0.00004  Biso   1.000  C 
  C34      1.0000 0.14978  0.36705  0.99999  Biso   1.000  C 
  C35      1.0000 0.33352  0.18346  0.99997  Biso   1.000  C 
  C36      1.0000 0.83352  0.31654  0.50000  Biso   1.000  C 
  C37      1.0000 0.14979  0.63295  0.49998  Biso   1.000  C 
  C38      1.0000 0.11892  0.60217  0.34884  Biso   1.000  C 
  C39      1.0000 0.33351  0.81656  0.50003  Biso   1.000  C 
  C40      1.0000 0.91336  0.39721  0.65113  Biso   1.000  C 
  H1       1.0000 0.62753  0.11065  0.20453  Biso   1.000  H 
  H2       1.0000 0.12750  0.61068  0.20449  Biso   1.000  H 
  H3       1.0000 0.12746  0.38927  0.29549  Biso   1.000  H 
  H4       1.0000 0.40481  0.88860  0.79547  Biso   1.000  H 
  H5       1.0000 0.90488  0.38854  0.20454  Biso   1.000  H 
  H6       1.0000 0.90492  0.61148  0.29542  Biso   1.000  H 
  H7       1.0000 0.62746  0.88929  0.29552  Biso   1.000  H 
  H8       1.0000 0.40494  0.11151  0.29543  Biso   1.000  H 
  H9       1.0000 0.90486  0.38855  0.79544  Biso   1.000  H 
  H10      1.0000 0.62741  0.88926  0.70453  Biso   1.000  H 
  H11      1.0000 0.12738  0.61077  0.79549  Biso   1.000  H 
  H12      1.0000 0.40491  0.88852  0.20456  Biso   1.000  H 
  H13      1.0000 0.62738  0.11078  0.79552  Biso   1.000  H 
  H14      1.0000 0.90483  0.61142  0.70452  Biso   1.000  H 
  H15      1.0000 0.12742  0.38927  0.70450  Biso   1.000  H 
  H16      1.0000 0.40482  0.11140  0.70454  Biso   1.000  H 
  N1       1.0000 0.07378  0.44273  0.09331  Biso   1.000  N 
  N2       1.0000 0.07376  0.44272  0.90668  Biso   1.000  N 
  N3       1.0000 0.07379  0.55726  0.40668  Biso   1.000  N 
  N4       1.0000 0.07376  0.55729  0.59330  Biso   1.000  N 
  N5       1.0000 0.95807  0.55748  0.09329  Biso   1.000  N 
  N6       1.0000 0.45807  0.05749  0.09332  Biso   1.000  N 
  N7       1.0000 0.57377  0.94273  0.09333  Biso   1.000  N 
  N8       1.0000 0.57376  0.94272  0.90670  Biso   1.000  N 
  N9       1.0000 0.95805  0.44253  0.59331  Biso   1.000  N 
  N10      1.0000 0.45804  0.05745  0.90668  Biso   1.000  N 
  N11      1.0000 0.95805  0.44253  0.40667  Biso   1.000  N 
  N12      1.0000 0.45806  0.94253  0.40670  Biso   1.000  N 
  N13      1.0000 0.45803  0.94255  0.59334  Biso   1.000  N 
  N14      1.0000 0.95804  0.55746  0.90665  Biso   1.000  N 
  N15      1.0000 0.57375  0.05729  0.59334  Biso   1.000  N 
  N16      1.0000 0.57380  0.05725  0.40671  Biso   1.000  N 
  Zn1      1.0000 0.51582  0.00001  0.25000  Biso   1.000  Zn
  Zn2      1.0000 0.01579  0.50000  0.74998  Biso   1.000  Zn
  Zn3      1.0000 0.01581  0.50000  0.25000  Biso   1.000  Zn
  Zn4      1.0000 0.51579  0.99999  0.75002  Biso   1.000  Zn
