data_image0
_cell_length_a       26.507
_cell_length_b       7.62848
_cell_length_c       7.3754
_cell_angle_alpha    90.0005
_cell_angle_beta     90.0001
_cell_angle_gamma    90.0009

_symmetry_space_group_name_H-M    "P 1"
_symmetry_int_tables_number       1

loop_
  _symmetry_equiv_pos_as_xyz
  'x, y, z'

loop_
  _atom_site_label
  _atom_site_occupancy
  _atom_site_fract_x
  _atom_site_fract_y
  _atom_site_fract_z
  _atom_site_thermal_displace_type
  _atom_site_B_iso_or_equiv
  _atom_site_type_symbol
  C1       1.0000 0.61053  0.81431  0.84990  Biso   1.000  C 
  C2       1.0000 0.24074  0.25110  0.00000  Biso   1.000  C 
  C3       1.0000 0.11053  0.31430  0.84991  Biso   1.000  C 
  C4       1.0000 0.42180  0.18561  0.84992  Biso   1.000  C 
  C5       1.0000 0.92180  0.68562  0.84992  Biso   1.000  C 
  C6       1.0000 0.39014  0.78237  0.50000  Biso   1.000  C 
  C7       1.0000 0.64217  0.21769  0.50000  Biso   1.000  C 
  C8       1.0000 0.19443  0.74610  0.50000  Biso   1.000  C 
  C9       1.0000 0.89014  0.28237  0.50000  Biso   1.000  C 
  C10      1.0000 0.69443  0.24610  0.50000  Biso   1.000  C 
  C11      1.0000 0.11052  0.68570  0.65010  Biso   1.000  C 
  C12      1.0000 0.64218  0.78233  1.00000  Biso   1.000  C 
  C13      1.0000 0.14218  0.28233  1.00000  Biso   1.000  C 
  C14      1.0000 0.33789  0.24621  1.00000  Biso   1.000  C 
  C15      1.0000 0.83789  0.25380  0.50001  Biso   1.000  C 
  C16      1.0000 0.14217  0.71769  0.50000  Biso   1.000  C 
  C17      1.0000 0.33789  0.75380  0.50000  Biso   1.000  C 
  C18      1.0000 0.92180  0.31438  0.65009  Biso   1.000  C 
  C19      1.0000 0.19444  0.25393  0.00001  Biso   1.000  C 
  C20      1.0000 0.69444  0.75394  0.99999  Biso   1.000  C 
  C21      1.0000 0.11052  0.68571  0.34991  Biso   1.000  C 
  C22      1.0000 0.24073  0.74894  0.50000  Biso   1.000  C 
  C23      1.0000 0.74073  0.24894  0.50000  Biso   1.000  C 
  C24      1.0000 0.79159  0.25082  0.50000  Biso   1.000  C 
  C25      1.0000 0.29159  0.75083  0.50000  Biso   1.000  C 
  C26      1.0000 0.79160  0.74920  0.99999  Biso   1.000  C 
  C27      1.0000 0.29160  0.24921  0.00000  Biso   1.000  C 
  C28      1.0000 0.11053  0.31430  0.15010  Biso   1.000  C 
  C29      1.0000 0.83789  0.74621  1.00000  Biso   1.000  C 
  C30      1.0000 0.61052  0.18572  0.65009  Biso   1.000  C 
  C31      1.0000 0.74073  0.75109  0.99999  Biso   1.000  C 
  C32      1.0000 0.61053  0.81429  0.15009  Biso   1.000  C 
  C33      1.0000 0.42180  0.81437  0.34991  Biso   1.000  C 
  C34      1.0000 0.92180  0.31437  0.34992  Biso   1.000  C 
  C35      1.0000 0.61052  0.18569  0.34990  Biso   1.000  C 
  C36      1.0000 0.92180  0.68560  0.15008  Biso   1.000  C 
  C37      1.0000 0.42180  0.18561  0.15008  Biso   1.000  C 
  C38      1.0000 0.39015  0.21762  0.00001  Biso   1.000  C 
  C39      1.0000 0.42180  0.81437  0.65008  Biso   1.000  C 
  C40      1.0000 0.89015  0.71762  0.00000  Biso   1.000  C 
  H1       1.0000 0.61968  0.80707  0.70671  Biso   1.000  H 
  H2       1.0000 0.41264  0.19288  0.70675  Biso   1.000  H 
  H3       1.0000 0.11968  0.30704  0.70673  Biso   1.000  H 
  H4       1.0000 0.91265  0.69290  0.70675  Biso   1.000  H 
  H5       1.0000 0.61968  0.19299  0.79327  Biso   1.000  H 
  H6       1.0000 0.41264  0.80710  0.20674  Biso   1.000  H 
  H7       1.0000 0.11968  0.69295  0.79328  Biso   1.000  H 
  H8       1.0000 0.91264  0.30711  0.79326  Biso   1.000  H 
  H9       1.0000 0.61968  0.80703  0.29327  Biso   1.000  H 
  H10      1.0000 0.91264  0.69286  0.29325  Biso   1.000  H 
  H11      1.0000 0.91264  0.30710  0.20676  Biso   1.000  H 
  H12      1.0000 0.41264  0.80711  0.79324  Biso   1.000  H 
  H13      1.0000 0.11968  0.30706  0.29329  Biso   1.000  H 
  H14      1.0000 0.11968  0.69298  0.20673  Biso   1.000  H 
  H15      1.0000 0.61968  0.19293  0.20671  Biso   1.000  H 
  H16      1.0000 0.41264  0.19288  0.29325  Biso   1.000  H 
  N1       1.0000 0.56469  0.13346  0.40699  Biso   1.000  N 
  N2       1.0000 0.56469  0.13348  0.59299  Biso   1.000  N 
  N3       1.0000 0.96763  0.63338  0.90702  Biso   1.000  N 
  N4       1.0000 0.46763  0.86660  0.59298  Biso   1.000  N 
  N5       1.0000 0.46763  0.86660  0.40701  Biso   1.000  N 
  N6       1.0000 0.96763  0.36660  0.40702  Biso   1.000  N 
  N7       1.0000 0.46763  0.13337  0.90701  Biso   1.000  N 
  N8       1.0000 0.96763  0.36661  0.59300  Biso   1.000  N 
  N9       1.0000 0.46763  0.13338  0.09298  Biso   1.000  N 
  N10      1.0000 0.56470  0.86652  0.09299  Biso   1.000  N 
  N11      1.0000 0.96763  0.63337  0.09299  Biso   1.000  N 
  N12      1.0000 0.06469  0.63346  0.59301  Biso   1.000  N 
  N13      1.0000 0.06469  0.63347  0.40701  Biso   1.000  N 
  N14      1.0000 0.06470  0.36652  0.90701  Biso   1.000  N 
  N15      1.0000 0.06470  0.36652  0.09300  Biso   1.000  N 
  N16      1.0000 0.56470  0.86653  0.90699  Biso   1.000  N 
  Zn1      1.0000 0.01616  0.49998  0.25001  Biso   1.000  Zn
  Zn2      1.0000 0.51616  0.99999  0.24999  Biso   1.000  Zn
  Zn3      1.0000 0.01616  0.50000  0.75002  Biso   1.000  Zn
  Zn4      1.0000 0.51616  0.99999  0.74999  Biso   1.000  Zn
