data_image0
_cell_length_a       13.5418
_cell_length_b       24.707
_cell_length_c       7.3141
_cell_angle_alpha    90
_cell_angle_beta     90
_cell_angle_gamma    90.0001

_symmetry_space_group_name_H-M    "P 1"
_symmetry_int_tables_number       1

loop_
  _symmetry_equiv_pos_as_xyz
  'x, y, z'

loop_
  _atom_site_label
  _atom_site_occupancy
  _atom_site_fract_x
  _atom_site_fract_y
  _atom_site_fract_z
  _atom_site_thermal_displace_type
  _atom_site_B_iso_or_equiv
  _atom_site_type_symbol
  C1       1.0000 0.63729  0.90332  0.84853  Biso   1.000  C 
  C2       1.0000 0.24662  0.27501  0.00000  Biso   1.000  C 
  C3       1.0000 0.13729  0.40332  0.84854  Biso   1.000  C 
  C4       1.0000 0.39509  0.09654  0.84852  Biso   1.000  C 
  C5       1.0000 0.89509  0.59654  0.84852  Biso   1.000  C 
  C6       1.0000 0.36511  0.87218  0.50000  Biso   1.000  C 
  C7       1.0000 0.86511  0.37218  0.50000  Biso   1.000  C 
  C8       1.0000 0.71128  0.17927  0.50000  Biso   1.000  C 
  C9       1.0000 0.66709  0.12801  0.50000  Biso   1.000  C 
  C10      1.0000 0.21128  0.67927  0.50001  Biso   1.000  C 
  C11      1.0000 0.16709  0.62801  0.50000  Biso   1.000  C 
  C12      1.0000 0.32064  0.82099  0.50000  Biso   1.000  C 
  C13      1.0000 0.13729  0.59668  0.65147  Biso   1.000  C 
  C14      1.0000 0.66709  0.87199  1.00000  Biso   1.000  C 
  C15      1.0000 0.16709  0.37199  0.00001  Biso   1.000  C 
  C16      1.0000 0.32064  0.17901  0.00000  Biso   1.000  C 
  C17      1.0000 0.82064  0.32099  0.50000  Biso   1.000  C 
  C18      1.0000 0.86511  0.62782  1.00000  Biso   1.000  C 
  C19      1.0000 0.21129  0.32074  0.00001  Biso   1.000  C 
  C20      1.0000 0.13729  0.59668  0.34854  Biso   1.000  C 
  C21      1.0000 0.36511  0.12782  1.00000  Biso   1.000  C 
  C22      1.0000 0.24662  0.72499  0.50000  Biso   1.000  C 
  C23      1.0000 0.74662  0.22499  0.50000  Biso   1.000  C 
  C24      1.0000 0.78518  0.27529  0.50000  Biso   1.000  C 
  C25      1.0000 0.28518  0.77529  0.50000  Biso   1.000  C 
  C26      1.0000 0.78518  0.72471  0.00000  Biso   1.000  C 
  C27      1.0000 0.28519  0.22471  0.00000  Biso   1.000  C 
  C28      1.0000 0.63729  0.09668  0.65146  Biso   1.000  C 
  C29      1.0000 0.74661  0.77500  0.99999  Biso   1.000  C 
  C30      1.0000 0.13729  0.40332  0.15147  Biso   1.000  C 
  C31      1.0000 0.82064  0.67900  0.00000  Biso   1.000  C 
  C32      1.0000 0.39509  0.09654  0.15147  Biso   1.000  C 
  C33      1.0000 0.39509  0.90346  0.65147  Biso   1.000  C 
  C34      1.0000 0.63729  0.90332  0.15146  Biso   1.000  C 
  C35      1.0000 0.39509  0.90346  0.34852  Biso   1.000  C 
  C36      1.0000 0.89510  0.40346  0.34852  Biso   1.000  C 
  C37      1.0000 0.63729  0.09668  0.34853  Biso   1.000  C 
  C38      1.0000 0.89509  0.40346  0.65148  Biso   1.000  C 
  C39      1.0000 0.89509  0.59654  0.15148  Biso   1.000  C 
  C40      1.0000 0.71128  0.82073  0.99999  Biso   1.000  C 
  H1       1.0000 0.64467  0.10568  0.79603  Biso   1.000  H 
  H2       1.0000 0.38772  0.89449  0.20393  Biso   1.000  H 
  H3       1.0000 0.14467  0.60568  0.79604  Biso   1.000  H 
  H4       1.0000 0.64467  0.89432  0.70397  Biso   1.000  H 
  H5       1.0000 0.88772  0.39449  0.79607  Biso   1.000  H 
  H6       1.0000 0.14467  0.39432  0.70398  Biso   1.000  H 
  H7       1.0000 0.38773  0.10551  0.70393  Biso   1.000  H 
  H8       1.0000 0.88772  0.60551  0.70393  Biso   1.000  H 
  H9       1.0000 0.14467  0.60568  0.20397  Biso   1.000  H 
  H10      1.0000 0.14467  0.39432  0.29604  Biso   1.000  H 
  H11      1.0000 0.38772  0.10551  0.29607  Biso   1.000  H 
  H12      1.0000 0.64466  0.10568  0.20396  Biso   1.000  H 
  H13      1.0000 0.64467  0.89432  0.29603  Biso   1.000  H 
  H14      1.0000 0.88772  0.60551  0.29607  Biso   1.000  H 
  H15      1.0000 0.88773  0.39449  0.20393  Biso   1.000  H 
  H16      1.0000 0.38772  0.89449  0.79606  Biso   1.000  H 
  N1       1.0000 0.93936  0.55096  0.90650  Biso   1.000  N 
  N2       1.0000 0.43936  0.94904  0.59350  Biso   1.000  N 
  N3       1.0000 0.43936  0.94904  0.40650  Biso   1.000  N 
  N4       1.0000 0.93936  0.44904  0.40650  Biso   1.000  N 
  N5       1.0000 0.93936  0.44904  0.59350  Biso   1.000  N 
  N6       1.0000 0.59327  0.05103  0.40648  Biso   1.000  N 
  N7       1.0000 0.43936  0.05096  0.90650  Biso   1.000  N 
  N8       1.0000 0.59327  0.05103  0.59350  Biso   1.000  N 
  N9       1.0000 0.09327  0.44897  0.09351  Biso   1.000  N 
  N10      1.0000 0.59327  0.94897  0.09351  Biso   1.000  N 
  N11      1.0000 0.59327  0.94897  0.90649  Biso   1.000  N 
  N12      1.0000 0.43936  0.05096  0.09350  Biso   1.000  N 
  N13      1.0000 0.93936  0.55096  0.09350  Biso   1.000  N 
  N14      1.0000 0.09327  0.55102  0.59351  Biso   1.000  N 
  N15      1.0000 0.09327  0.55103  0.40649  Biso   1.000  N 
  N16      1.0000 0.09327  0.44897  0.90649  Biso   1.000  N 
  Zn1      1.0000 0.51634  0.00000  0.24999  Biso   1.000  Zn
  Zn2      1.0000 0.01634  0.50000  0.75000  Biso   1.000  Zn
  Zn3      1.0000 0.01633  0.50000  0.25000  Biso   1.000  Zn
  Zn4      1.0000 0.51635  1.00000  0.75001  Biso   1.000  Zn
