data_image0
_cell_length_a       26.4329
_cell_length_b       8.14461
_cell_length_c       7.35825
_cell_angle_alpha    89.9995
_cell_angle_beta     89.9996
_cell_angle_gamma    90.001

_symmetry_space_group_name_H-M    "P 1"
_symmetry_int_tables_number       1

loop_
  _symmetry_equiv_pos_as_xyz
  'x, y, z'

loop_
  _atom_site_label
  _atom_site_occupancy
  _atom_site_fract_x
  _atom_site_fract_y
  _atom_site_fract_z
  _atom_site_thermal_displace_type
  _atom_site_B_iso_or_equiv
  _atom_site_type_symbol
  C1       1.0000 0.61058  0.82443  0.84954  Biso   1.000  C 
  C2       1.0000 0.24068  0.25357  0.00001  Biso   1.000  C 
  C3       1.0000 0.11058  0.32442  0.84956  Biso   1.000  C 
  C4       1.0000 0.42175  0.17563  0.84954  Biso   1.000  C 
  C5       1.0000 0.92175  0.67564  0.84955  Biso   1.000  C 
  C6       1.0000 0.39015  0.79300  0.49999  Biso   1.000  C 
  C7       1.0000 0.64216  0.20701  0.50000  Biso   1.000  C 
  C8       1.0000 0.19431  0.73809  0.49999  Biso   1.000  C 
  C9       1.0000 0.89015  0.29299  0.50001  Biso   1.000  C 
  C10      1.0000 0.69431  0.23808  0.50001  Biso   1.000  C 
  C11      1.0000 0.11058  0.67558  0.65045  Biso   1.000  C 
  C12      1.0000 0.64216  0.79300  0.99998  Biso   1.000  C 
  C13      1.0000 0.14216  0.29300  0.00001  Biso   1.000  C 
  C14      1.0000 0.33799  0.23782  0.00001  Biso   1.000  C 
  C15      1.0000 0.83798  0.26218  0.50001  Biso   1.000  C 
  C16      1.0000 0.14216  0.70701  0.50000  Biso   1.000  C 
  C17      1.0000 0.33798  0.76219  0.49998  Biso   1.000  C 
  C18      1.0000 0.92175  0.32435  0.65047  Biso   1.000  C 
  C19      1.0000 0.19432  0.26194  0.00001  Biso   1.000  C 
  C20      1.0000 0.69432  0.76193  0.99998  Biso   1.000  C 
  C21      1.0000 0.11057  0.67559  0.34955  Biso   1.000  C 
  C22      1.0000 0.24068  0.74646  0.49999  Biso   1.000  C 
  C23      1.0000 0.74068  0.24646  0.50001  Biso   1.000  C 
  C24      1.0000 0.79162  0.25418  0.50002  Biso   1.000  C 
  C25      1.0000 0.29162  0.75418  0.49999  Biso   1.000  C 
  C26      1.0000 0.79162  0.74584  0.99999  Biso   1.000  C 
  C27      1.0000 0.29162  0.24584  0.00001  Biso   1.000  C 
  C28      1.0000 0.11058  0.32442  0.15046  Biso   1.000  C 
  C29      1.0000 0.83799  0.73782  0.99999  Biso   1.000  C 
  C30      1.0000 0.61057  0.17559  0.65045  Biso   1.000  C 
  C31      1.0000 0.74068  0.75357  0.99999  Biso   1.000  C 
  C32      1.0000 0.61058  0.82442  0.15044  Biso   1.000  C 
  C33      1.0000 0.42175  0.82436  0.34953  Biso   1.000  C 
  C34      1.0000 0.92175  0.32434  0.34956  Biso   1.000  C 
  C35      1.0000 0.61058  0.17558  0.34954  Biso   1.000  C 
  C36      1.0000 0.92175  0.67562  0.15045  Biso   1.000  C 
  C37      1.0000 0.42175  0.17565  0.15045  Biso   1.000  C 
  C38      1.0000 0.39016  0.20700  1.00000  Biso   1.000  C 
  C39      1.0000 0.42175  0.82435  0.65044  Biso   1.000  C 
  C40      1.0000 0.89016  0.70699  1.00000  Biso   1.000  C 
  H1       1.0000 0.61970  0.81717  0.70602  Biso   1.000  H 
  H2       1.0000 0.41264  0.18285  0.70601  Biso   1.000  H 
  H3       1.0000 0.11970  0.31716  0.70604  Biso   1.000  H 
  H4       1.0000 0.91264  0.68287  0.70601  Biso   1.000  H 
  H5       1.0000 0.61969  0.18286  0.79397  Biso   1.000  H 
  H6       1.0000 0.41264  0.81713  0.20600  Biso   1.000  H 
  H7       1.0000 0.11970  0.68284  0.79397  Biso   1.000  H 
  H8       1.0000 0.91264  0.31714  0.79400  Biso   1.000  H 
  H9       1.0000 0.61970  0.81715  0.29396  Biso   1.000  H 
  H10      1.0000 0.91264  0.68283  0.29399  Biso   1.000  H 
  H11      1.0000 0.91264  0.31711  0.20603  Biso   1.000  H 
  H12      1.0000 0.41263  0.81712  0.79398  Biso   1.000  H 
  H13      1.0000 0.11970  0.31716  0.29398  Biso   1.000  H 
  H14      1.0000 0.11969  0.68285  0.20602  Biso   1.000  H 
  H15      1.0000 0.61970  0.18282  0.20603  Biso   1.000  H 
  H16      1.0000 0.41264  0.18287  0.29399  Biso   1.000  H 
  N1       1.0000 0.56480  0.12501  0.40683  Biso   1.000  N 
  N2       1.0000 0.56480  0.12502  0.59316  Biso   1.000  N 
  N3       1.0000 0.96754  0.62520  0.90684  Biso   1.000  N 
  N4       1.0000 0.46753  0.87479  0.59316  Biso   1.000  N 
  N5       1.0000 0.46753  0.87479  0.40682  Biso   1.000  N 
  N6       1.0000 0.96753  0.37478  0.40684  Biso   1.000  N 
  N7       1.0000 0.46754  0.12520  0.90683  Biso   1.000  N 
  N8       1.0000 0.96753  0.37479  0.59318  Biso   1.000  N 
  N9       1.0000 0.46754  0.12521  0.09316  Biso   1.000  N 
  N10      1.0000 0.56481  0.87500  0.09315  Biso   1.000  N 
  N11      1.0000 0.96754  0.62519  0.09317  Biso   1.000  N 
  N12      1.0000 0.06480  0.62501  0.59317  Biso   1.000  N 
  N13      1.0000 0.06480  0.62502  0.40684  Biso   1.000  N 
  N14      1.0000 0.06481  0.37499  0.90685  Biso   1.000  N 
  N15      1.0000 0.06481  0.37499  0.09317  Biso   1.000  N 
  N16      1.0000 0.56481  0.87500  0.90683  Biso   1.000  N 
  Zn1      1.0000 0.01614  0.49999  0.25000  Biso   1.000  Zn
  Zn2      1.0000 0.51614  0.00000  0.25000  Biso   1.000  Zn
  Zn3      1.0000 0.01614  0.49999  0.75000  Biso   1.000  Zn
  Zn4      1.0000 0.51614  0.99999  0.75000  Biso   1.000  Zn
