data_image0
_cell_length_a       26.8172
_cell_length_b       4.9749
_cell_length_c       7.15132
_cell_angle_alpha    90.0003
_cell_angle_beta     89.9991
_cell_angle_gamma    90.0008

_symmetry_space_group_name_H-M    "P 1"
_symmetry_int_tables_number       1

loop_
  _symmetry_equiv_pos_as_xyz
  'x, y, z'

loop_
  _atom_site_label
  _atom_site_occupancy
  _atom_site_fract_x
  _atom_site_fract_y
  _atom_site_fract_z
  _atom_site_thermal_displace_type
  _atom_site_B_iso_or_equiv
  _atom_site_type_symbol
  C1       1.0000 0.61182  0.75157  0.84548  Biso   1.000  C 
  C2       1.0000 0.24129  0.23588  0.00001  Biso   1.000  C 
  C3       1.0000 0.11182  0.25154  0.84549  Biso   1.000  C 
  C4       1.0000 0.42050  0.24855  0.84549  Biso   1.000  C 
  C5       1.0000 0.92050  0.74856  0.84548  Biso   1.000  C 
  C6       1.0000 0.38843  0.72368  0.50000  Biso   1.000  C 
  C7       1.0000 0.88843  0.22367  0.50001  Biso   1.000  C 
  C8       1.0000 0.69586  0.28837  0.50000  Biso   1.000  C 
  C9       1.0000 0.64389  0.27617  0.50000  Biso   1.000  C 
  C10      1.0000 0.19586  0.78837  0.49999  Biso   1.000  C 
  C11      1.0000 0.14389  0.22384  0.00000  Biso   1.000  C 
  C12      1.0000 0.33646  0.28878  0.00000  Biso   1.000  C 
  C13      1.0000 0.83646  0.21121  0.50000  Biso   1.000  C 
  C14      1.0000 0.14389  0.77617  0.49999  Biso   1.000  C 
  C15      1.0000 0.33646  0.71122  0.50000  Biso   1.000  C 
  C16      1.0000 0.11182  0.74845  0.65451  Biso   1.000  C 
  C17      1.0000 0.64389  0.72385  0.99999  Biso   1.000  C 
  C18      1.0000 0.38843  0.27632  0.00001  Biso   1.000  C 
  C19      1.0000 0.19586  0.21164  0.00001  Biso   1.000  C 
  C20      1.0000 0.88843  0.77631  1.00000  Biso   1.000  C 
  C21      1.0000 0.69586  0.71165  1.00000  Biso   1.000  C 
  C22      1.0000 0.24129  0.76413  0.49999  Biso   1.000  C 
  C23      1.0000 0.74129  0.26412  0.50001  Biso   1.000  C 
  C24      1.0000 0.79103  0.23531  0.50001  Biso   1.000  C 
  C25      1.0000 0.29102  0.73531  0.49999  Biso   1.000  C 
  C26      1.0000 0.79103  0.76469  0.99999  Biso   1.000  C 
  C27      1.0000 0.29103  0.26469  0.00001  Biso   1.000  C 
  C28      1.0000 0.61182  0.24848  0.65451  Biso   1.000  C 
  C29      1.0000 0.74129  0.73588  0.99999  Biso   1.000  C 
  C30      1.0000 0.11182  0.25155  0.15452  Biso   1.000  C 
  C31      1.0000 0.83646  0.78877  1.00000  Biso   1.000  C 
  C32      1.0000 0.92050  0.25144  0.34549  Biso   1.000  C 
  C33      1.0000 0.61182  0.24845  0.34548  Biso   1.000  C 
  C34      1.0000 0.92050  0.74855  0.15452  Biso   1.000  C 
  C35      1.0000 0.42050  0.24855  0.15452  Biso   1.000  C 
  C36      1.0000 0.42050  0.75145  0.65452  Biso   1.000  C 
  C37      1.0000 0.61182  0.75154  0.15451  Biso   1.000  C 
  C38      1.0000 0.11182  0.74846  0.34548  Biso   1.000  C 
  C39      1.0000 0.42050  0.75145  0.34548  Biso   1.000  C 
  C40      1.0000 0.92050  0.25144  0.65452  Biso   1.000  C 
  H1       1.0000 0.91095  0.75213  0.69870  Biso   1.000  H 
  H2       1.0000 0.12138  0.75209  0.80130  Biso   1.000  H 
  H3       1.0000 0.41095  0.74787  0.19870  Biso   1.000  H 
  H4       1.0000 0.91095  0.24785  0.80131  Biso   1.000  H 
  H5       1.0000 0.62138  0.74794  0.69869  Biso   1.000  H 
  H6       1.0000 0.41095  0.25214  0.69870  Biso   1.000  H 
  H7       1.0000 0.12138  0.24790  0.69870  Biso   1.000  H 
  H8       1.0000 0.62137  0.25213  0.80130  Biso   1.000  H 
  H9       1.0000 0.12138  0.24791  0.30131  Biso   1.000  H 
  H10      1.0000 0.12138  0.75211  0.19869  Biso   1.000  H 
  H11      1.0000 0.62138  0.25208  0.19869  Biso   1.000  H 
  H12      1.0000 0.41095  0.25214  0.30131  Biso   1.000  H 
  H13      1.0000 0.91094  0.75213  0.30130  Biso   1.000  H 
  H14      1.0000 0.62138  0.74789  0.30130  Biso   1.000  H 
  H15      1.0000 0.41094  0.74786  0.80130  Biso   1.000  H 
  H16      1.0000 0.91095  0.24786  0.19871  Biso   1.000  H 
  N1       1.0000 0.96726  0.29790  0.40411  Biso   1.000  N 
  N2       1.0000 0.96726  0.29790  0.59590  Biso   1.000  N 
  N3       1.0000 0.56506  0.20207  0.40410  Biso   1.000  N 
  N4       1.0000 0.56506  0.20209  0.59589  Biso   1.000  N 
  N5       1.0000 0.96726  0.70210  0.90411  Biso   1.000  N 
  N6       1.0000 0.46726  0.79790  0.59589  Biso   1.000  N 
  N7       1.0000 0.46726  0.20210  0.90410  Biso   1.000  N 
  N8       1.0000 0.46726  0.79790  0.40410  Biso   1.000  N 
  N9       1.0000 0.06506  0.70207  0.59589  Biso   1.000  N 
  N10      1.0000 0.56506  0.79792  0.09589  Biso   1.000  N 
  N11      1.0000 0.06506  0.70208  0.40410  Biso   1.000  N 
  N12      1.0000 0.06506  0.29792  0.90411  Biso   1.000  N 
  N13      1.0000 0.06506  0.29793  0.09589  Biso   1.000  N 
  N14      1.0000 0.56506  0.79793  0.90410  Biso   1.000  N 
  N15      1.0000 0.46726  0.20210  0.09590  Biso   1.000  N 
  N16      1.0000 0.96726  0.70210  0.09590  Biso   1.000  N 
  Zn1      1.0000 0.01619  0.49998  0.74998  Biso   1.000  Zn
  Zn2      1.0000 0.01619  0.49998  0.25001  Biso   1.000  Zn
  Zn3      1.0000 0.51619  0.99998  0.25002  Biso   1.000  Zn
  Zn4      1.0000 0.51619  0.00000  0.74999  Biso   1.000  Zn
