data_image0
_cell_length_a       22.3293
_cell_length_b       17.4011
_cell_length_c       7.30022
_cell_angle_alpha    89.998
_cell_angle_beta     90.0013
_cell_angle_gamma    90.0001

_symmetry_space_group_name_H-M    "P 1"
_symmetry_int_tables_number       1

loop_
  _symmetry_equiv_pos_as_xyz
  'x, y, z'

loop_
  _atom_site_label
  _atom_site_occupancy
  _atom_site_fract_x
  _atom_site_fract_y
  _atom_site_fract_z
  _atom_site_thermal_displace_type
  _atom_site_B_iso_or_equiv
  _atom_site_type_symbol
  C1       1.0000 0.61532  0.89178  0.84823  Biso   1.000  C 
  C2       1.0000 0.24152  0.27245  0.00001  Biso   1.000  C 
  C3       1.0000 0.11531  0.39177  0.84823  Biso   1.000  C 
  C4       1.0000 0.41702  0.10836  0.84822  Biso   1.000  C 
  C5       1.0000 0.91702  0.60836  0.84823  Biso   1.000  C 
  C6       1.0000 0.38600  0.86109  0.50000  Biso   1.000  C 
  C7       1.0000 0.69674  0.18667  0.49999  Biso   1.000  C 
  C8       1.0000 0.64633  0.13876  0.50000  Biso   1.000  C 
  C9       1.0000 0.19675  0.68666  0.50000  Biso   1.000  C 
  C10      1.0000 0.88601  0.36109  0.49999  Biso   1.000  C 
  C11      1.0000 0.33558  0.81322  0.50002  Biso   1.000  C 
  C12      1.0000 0.11532  0.60821  0.65178  Biso   1.000  C 
  C13      1.0000 0.64633  0.86126  0.00000  Biso   1.000  C 
  C14      1.0000 0.14633  0.36125  0.00001  Biso   1.000  C 
  C15      1.0000 0.33558  0.18678  0.99997  Biso   1.000  C 
  C16      1.0000 0.83558  0.31322  0.49998  Biso   1.000  C 
  C17      1.0000 0.14633  0.63874  0.50000  Biso   1.000  C 
  C18      1.0000 0.11532  0.60821  0.34822  Biso   1.000  C 
  C19      1.0000 0.19675  0.31333  0.00002  Biso   1.000  C 
  C20      1.0000 0.91703  0.39162  0.65175  Biso   1.000  C 
  C21      1.0000 0.88600  0.63891  0.00000  Biso   1.000  C 
  C22      1.0000 0.24152  0.72755  0.50001  Biso   1.000  C 
  C23      1.0000 0.74152  0.22756  0.49999  Biso   1.000  C 
  C24      1.0000 0.79078  0.27237  0.49999  Biso   1.000  C 
  C25      1.0000 0.29078  0.77237  0.50001  Biso   1.000  C 
  C26      1.0000 0.79078  0.72763  0.00001  Biso   1.000  C 
  C27      1.0000 0.29078  0.22763  0.99999  Biso   1.000  C 
  C28      1.0000 0.74152  0.77245  0.00001  Biso   1.000  C 
  C29      1.0000 0.11532  0.39179  0.15179  Biso   1.000  C 
  C30      1.0000 0.83558  0.68678  0.00000  Biso   1.000  C 
  C31      1.0000 0.61531  0.10823  0.65178  Biso   1.000  C 
  C32      1.0000 0.41702  0.89164  0.65177  Biso   1.000  C 
  C33      1.0000 0.61532  0.89179  0.15179  Biso   1.000  C 
  C34      1.0000 0.41702  0.89163  0.34824  Biso   1.000  C 
  C35      1.0000 0.91702  0.39164  0.34822  Biso   1.000  C 
  C36      1.0000 0.61531  0.10822  0.34822  Biso   1.000  C 
  C37      1.0000 0.91703  0.60837  0.15176  Biso   1.000  C 
  C38      1.0000 0.69675  0.81334  0.00001  Biso   1.000  C 
  C39      1.0000 0.41702  0.10837  0.15175  Biso   1.000  C 
  C40      1.0000 0.38601  0.13891  0.99998  Biso   1.000  C 
  H1       1.0000 0.12408  0.38353  0.70333  Biso   1.000  H 
  H2       1.0000 0.90826  0.61664  0.70334  Biso   1.000  H 
  H3       1.0000 0.62408  0.11647  0.79668  Biso   1.000  H 
  H4       1.0000 0.40828  0.88334  0.20336  Biso   1.000  H 
  H5       1.0000 0.12409  0.61644  0.79668  Biso   1.000  H 
  H6       1.0000 0.62408  0.88355  0.70333  Biso   1.000  H 
  H7       1.0000 0.90829  0.38333  0.79664  Biso   1.000  H 
  H8       1.0000 0.40828  0.11664  0.70332  Biso   1.000  H 
  H9       1.0000 0.40828  0.11665  0.29664  Biso   1.000  H 
  H10      1.0000 0.62408  0.11646  0.20332  Biso   1.000  H 
  H11      1.0000 0.62409  0.88355  0.29669  Biso   1.000  H 
  H12      1.0000 0.90829  0.61666  0.29665  Biso   1.000  H 
  H13      1.0000 0.90827  0.38336  0.20333  Biso   1.000  H 
  H14      1.0000 0.40828  0.88335  0.79668  Biso   1.000  H 
  H15      1.0000 0.12409  0.38356  0.29670  Biso   1.000  H 
  H16      1.0000 0.12408  0.61645  0.20332  Biso   1.000  H 
  N1       1.0000 0.57006  0.06352  0.59364  Biso   1.000  N 
  N2       1.0000 0.96225  0.56362  0.90635  Biso   1.000  N 
  N3       1.0000 0.46225  0.93638  0.59365  Biso   1.000  N 
  N4       1.0000 0.46225  0.93637  0.40637  Biso   1.000  N 
  N5       1.0000 0.96225  0.43638  0.40635  Biso   1.000  N 
  N6       1.0000 0.96225  0.43637  0.59363  Biso   1.000  N 
  N7       1.0000 0.46225  0.06362  0.90635  Biso   1.000  N 
  N8       1.0000 0.57006  0.06352  0.40636  Biso   1.000  N 
  N9       1.0000 0.57006  0.93649  0.90637  Biso   1.000  N 
  N10      1.0000 0.57006  0.93649  0.09365  Biso   1.000  N 
  N11      1.0000 0.46225  0.06362  0.09362  Biso   1.000  N 
  N12      1.0000 0.96225  0.56363  0.09362  Biso   1.000  N 
  N13      1.0000 0.07006  0.56351  0.59364  Biso   1.000  N 
  N14      1.0000 0.07006  0.56351  0.40636  Biso   1.000  N 
  N15      1.0000 0.07006  0.43648  0.90637  Biso   1.000  N 
  N16      1.0000 0.07006  0.43649  0.09365  Biso   1.000  N 
  Zn1      1.0000 0.01608  0.50000  0.75000  Biso   1.000  Zn
  Zn2      1.0000 0.01608  0.50000  0.25000  Biso   1.000  Zn
  Zn3      1.0000 0.51608  1.00000  0.25000  Biso   1.000  Zn
  Zn4      1.0000 0.51608  1.00000  0.75000  Biso   1.000  Zn
