data_image0
_cell_length_a       23.0699
_cell_length_b       16.3682
_cell_length_c       7.2891
_cell_angle_alpha    89.9991
_cell_angle_beta     90.0005
_cell_angle_gamma    90

_symmetry_space_group_name_H-M    "P 1"
_symmetry_int_tables_number       1

loop_
  _symmetry_equiv_pos_as_xyz
  'x, y, z'

loop_
  _atom_site_label
  _atom_site_occupancy
  _atom_site_fract_x
  _atom_site_fract_y
  _atom_site_fract_z
  _atom_site_thermal_displace_type
  _atom_site_B_iso_or_equiv
  _atom_site_type_symbol
  C1       1.0000 0.61465  0.88929  0.84800  Biso   1.000  C 
  C2       1.0000 0.74146  0.22807  0.49999  Biso   1.000  C 
  C3       1.0000 0.79089  0.27198  0.49999  Biso   1.000  C 
  C4       1.0000 0.29089  0.77197  0.50000  Biso   1.000  C 
  C5       1.0000 0.79089  0.72802  0.99998  Biso   1.000  C 
  C6       1.0000 0.29089  0.22802  0.00001  Biso   1.000  C 
  C7       1.0000 0.61465  0.11071  0.65201  Biso   1.000  C 
  C8       1.0000 0.74146  0.77193  0.99999  Biso   1.000  C 
  C9       1.0000 0.11466  0.38929  0.15201  Biso   1.000  C 
  C10      1.0000 0.83583  0.68794  0.99998  Biso   1.000  C 
  C11      1.0000 0.41766  0.11056  0.15202  Biso   1.000  C 
  C12      1.0000 0.41765  0.88944  0.65202  Biso   1.000  C 
  C13      1.0000 0.61466  0.88929  0.15201  Biso   1.000  C 
  C14      1.0000 0.41766  0.88944  0.34799  Biso   1.000  C 
  C15      1.0000 0.91765  0.38945  0.34798  Biso   1.000  C 
  C16      1.0000 0.61465  0.11071  0.34800  Biso   1.000  C 
  C17      1.0000 0.91766  0.61057  0.15201  Biso   1.000  C 
  C18      1.0000 0.69648  0.81192  0.00000  Biso   1.000  C 
  C19      1.0000 0.24147  0.72806  0.50000  Biso   1.000  C 
  C20      1.0000 0.38648  0.14078  0.00000  Biso   1.000  C 
  C21      1.0000 0.91766  0.38943  0.65201  Biso   1.000  C 
  C22      1.0000 0.19648  0.31191  0.00001  Biso   1.000  C 
  C23      1.0000 0.24146  0.27193  0.00001  Biso   1.000  C 
  C24      1.0000 0.11465  0.38929  0.84800  Biso   1.000  C 
  C25      1.0000 0.41765  0.11056  0.84799  Biso   1.000  C 
  C26      1.0000 0.91765  0.61055  0.84797  Biso   1.000  C 
  C27      1.0000 0.38648  0.85922  0.50000  Biso   1.000  C 
  C28      1.0000 0.69648  0.18809  0.50000  Biso   1.000  C 
  C29      1.0000 0.64581  0.14097  0.50000  Biso   1.000  C 
  C30      1.0000 0.19648  0.68808  0.50001  Biso   1.000  C 
  C31      1.0000 0.88648  0.35922  0.50000  Biso   1.000  C 
  C32      1.0000 0.33583  0.81206  0.50000  Biso   1.000  C 
  C33      1.0000 0.11466  0.61070  0.65201  Biso   1.000  C 
  C34      1.0000 0.64581  0.85904  0.00001  Biso   1.000  C 
  C35      1.0000 0.14581  0.35903  0.00001  Biso   1.000  C 
  C36      1.0000 0.33583  0.18794  0.00000  Biso   1.000  C 
  C37      1.0000 0.83583  0.31206  0.49999  Biso   1.000  C 
  C38      1.0000 0.88648  0.64077  0.99999  Biso   1.000  C 
  C39      1.0000 0.14581  0.64096  0.50000  Biso   1.000  C 
  C40      1.0000 0.11466  0.61071  0.34800  Biso   1.000  C 
  H1       1.0000 0.12352  0.38131  0.29712  Biso   1.000  H 
  H2       1.0000 0.40877  0.88150  0.79713  Biso   1.000  H 
  H3       1.0000 0.90876  0.38151  0.20287  Biso   1.000  H 
  H4       1.0000 0.90877  0.61851  0.29712  Biso   1.000  H 
  H5       1.0000 0.62352  0.88130  0.29712  Biso   1.000  H 
  H6       1.0000 0.62351  0.11870  0.20289  Biso   1.000  H 
  H7       1.0000 0.40877  0.11851  0.29713  Biso   1.000  H 
  H8       1.0000 0.12352  0.61871  0.20289  Biso   1.000  H 
  H9       1.0000 0.40876  0.11850  0.70287  Biso   1.000  H 
  H10      1.0000 0.12351  0.38129  0.70289  Biso   1.000  H 
  H11      1.0000 0.90878  0.38148  0.79712  Biso   1.000  H 
  H12      1.0000 0.62351  0.88130  0.70289  Biso   1.000  H 
  H13      1.0000 0.12352  0.61869  0.79711  Biso   1.000  H 
  H14      1.0000 0.40877  0.88150  0.20287  Biso   1.000  H 
  H15      1.0000 0.62351  0.11870  0.79711  Biso   1.000  H 
  H16      1.0000 0.90876  0.61849  0.70286  Biso   1.000  H 
  N1       1.0000 0.06919  0.43360  0.90624  Biso   1.000  N 
  N2       1.0000 0.06919  0.56640  0.40623  Biso   1.000  N 
  N3       1.0000 0.06919  0.56640  0.59376  Biso   1.000  N 
  N4       1.0000 0.96316  0.56633  0.09377  Biso   1.000  N 
  N5       1.0000 0.46315  0.06632  0.09377  Biso   1.000  N 
  N6       1.0000 0.56919  0.93360  0.90624  Biso   1.000  N 
  N7       1.0000 0.56919  0.93360  0.09377  Biso   1.000  N 
  N8       1.0000 0.06919  0.43360  0.09377  Biso   1.000  N 
  N9       1.0000 0.56919  0.06641  0.40624  Biso   1.000  N 
  N10      1.0000 0.46315  0.06632  0.90623  Biso   1.000  N 
  N11      1.0000 0.96316  0.43367  0.59377  Biso   1.000  N 
  N12      1.0000 0.96315  0.43368  0.40623  Biso   1.000  N 
  N13      1.0000 0.46316  0.93368  0.40623  Biso   1.000  N 
  N14      1.0000 0.46315  0.93368  0.59377  Biso   1.000  N 
  N15      1.0000 0.96315  0.56632  0.90622  Biso   1.000  N 
  N16      1.0000 0.56919  0.06641  0.59377  Biso   1.000  N 
  Zn1      1.0000 0.01623  0.50000  0.24999  Biso   1.000  Zn
  Zn2      1.0000 0.51623  1.00000  0.25000  Biso   1.000  Zn
  Zn3      1.0000 0.01623  0.50000  0.75000  Biso   1.000  Zn
  Zn4      1.0000 0.51623  0.00000  0.75000  Biso   1.000  Zn
