data_image0
_cell_length_a       26.7249
_cell_length_b       5.41824
_cell_length_c       7.3054
_cell_angle_alpha    90.0003
_cell_angle_beta     89.9988
_cell_angle_gamma    90.001

_symmetry_space_group_name_H-M    "P 1"
_symmetry_int_tables_number       1

loop_
  _symmetry_equiv_pos_as_xyz
  'x, y, z'

loop_
  _atom_site_label
  _atom_site_occupancy
  _atom_site_fract_x
  _atom_site_fract_y
  _atom_site_fract_z
  _atom_site_thermal_displace_type
  _atom_site_B_iso_or_equiv
  _atom_site_type_symbol
  C1       1.0000 0.61119  0.75788  0.84850  Biso   1.000  C 
  C2       1.0000 0.74116  0.26410  0.50000  Biso   1.000  C 
  C3       1.0000 0.79118  0.23527  0.50000  Biso   1.000  C 
  C4       1.0000 0.29118  0.73527  0.50000  Biso   1.000  C 
  C5       1.0000 0.79118  0.76474  0.99999  Biso   1.000  C 
  C6       1.0000 0.29118  0.26475  0.00001  Biso   1.000  C 
  C7       1.0000 0.83681  0.78882  1.00000  Biso   1.000  C 
  C8       1.0000 0.61119  0.24217  0.65150  Biso   1.000  C 
  C9       1.0000 0.74116  0.73592  0.99999  Biso   1.000  C 
  C10      1.0000 0.11119  0.25786  0.15150  Biso   1.000  C 
  C11      1.0000 0.42114  0.75774  0.34850  Biso   1.000  C 
  C12      1.0000 0.92114  0.25773  0.34850  Biso   1.000  C 
  C13      1.0000 0.61119  0.24215  0.34850  Biso   1.000  C 
  C14      1.0000 0.92114  0.74224  0.15150  Biso   1.000  C 
  C15      1.0000 0.42114  0.24226  0.15151  Biso   1.000  C 
  C16      1.0000 0.42114  0.75774  0.65150  Biso   1.000  C 
  C17      1.0000 0.61119  0.75786  0.15149  Biso   1.000  C 
  C18      1.0000 0.11119  0.74216  0.34850  Biso   1.000  C 
  C19      1.0000 0.24116  0.76411  0.49999  Biso   1.000  C 
  C20      1.0000 0.92114  0.25773  0.65150  Biso   1.000  C 
  C21      1.0000 0.88912  0.77435  1.00000  Biso   1.000  C 
  C22      1.0000 0.19554  0.21161  0.00000  Biso   1.000  C 
  C23      1.0000 0.24116  0.23592  0.00001  Biso   1.000  C 
  C24      1.0000 0.11119  0.25786  0.84850  Biso   1.000  C 
  C25      1.0000 0.42114  0.24227  0.84850  Biso   1.000  C 
  C26      1.0000 0.92114  0.74225  0.84850  Biso   1.000  C 
  C27      1.0000 0.38912  0.72564  0.50000  Biso   1.000  C 
  C28      1.0000 0.88912  0.22563  0.50000  Biso   1.000  C 
  C29      1.0000 0.69554  0.28840  0.50000  Biso   1.000  C 
  C30      1.0000 0.64322  0.27413  0.50000  Biso   1.000  C 
  C31      1.0000 0.19554  0.78841  0.49999  Biso   1.000  C 
  C32      1.0000 0.14322  0.22589  0.00000  Biso   1.000  C 
  C33      1.0000 0.33681  0.28883  0.00002  Biso   1.000  C 
  C34      1.0000 0.83681  0.21117  0.50001  Biso   1.000  C 
  C35      1.0000 0.14322  0.77413  0.49999  Biso   1.000  C 
  C36      1.0000 0.33681  0.71117  0.50000  Biso   1.000  C 
  C37      1.0000 0.11119  0.74215  0.65150  Biso   1.000  C 
  C38      1.0000 0.69554  0.71162  0.99999  Biso   1.000  C 
  C39      1.0000 0.64322  0.72589  0.99999  Biso   1.000  C 
  C40      1.0000 0.38912  0.27437  0.00001  Biso   1.000  C 
  H1       1.0000 0.41183  0.75042  0.79572  Biso   1.000  H 
  H2       1.0000 0.62049  0.75050  0.29572  Biso   1.000  H 
  H3       1.0000 0.91183  0.74957  0.29572  Biso   1.000  H 
  H4       1.0000 0.41183  0.24958  0.29572  Biso   1.000  H 
  H5       1.0000 0.62050  0.24947  0.20427  Biso   1.000  H 
  H6       1.0000 0.12049  0.74950  0.20427  Biso   1.000  H 
  H7       1.0000 0.12049  0.25051  0.29573  Biso   1.000  H 
  H8       1.0000 0.91183  0.25040  0.20428  Biso   1.000  H 
  H9       1.0000 0.62049  0.24952  0.79573  Biso   1.000  H 
  H10      1.0000 0.91183  0.74958  0.70428  Biso   1.000  H 
  H11      1.0000 0.12050  0.25051  0.70427  Biso   1.000  H 
  H12      1.0000 0.41183  0.24960  0.70429  Biso   1.000  H 
  H13      1.0000 0.62050  0.75054  0.70426  Biso   1.000  H 
  H14      1.0000 0.91183  0.25040  0.79572  Biso   1.000  H 
  H15      1.0000 0.41183  0.75040  0.20428  Biso   1.000  H 
  H16      1.0000 0.12050  0.74949  0.79573  Biso   1.000  H 
  N1       1.0000 0.46759  0.18674  0.09395  Biso   1.000  N 
  N2       1.0000 0.56473  0.81320  0.90603  Biso   1.000  N 
  N3       1.0000 0.06473  0.31318  0.09397  Biso   1.000  N 
  N4       1.0000 0.06473  0.31318  0.90603  Biso   1.000  N 
  N5       1.0000 0.06472  0.68682  0.40604  Biso   1.000  N 
  N6       1.0000 0.06472  0.68682  0.59397  Biso   1.000  N 
  N7       1.0000 0.56473  0.81318  0.09396  Biso   1.000  N 
  N8       1.0000 0.96759  0.68673  0.09395  Biso   1.000  N 
  N9       1.0000 0.46759  0.81325  0.40605  Biso   1.000  N 
  N10      1.0000 0.46759  0.18675  0.90606  Biso   1.000  N 
  N11      1.0000 0.46759  0.81325  0.59394  Biso   1.000  N 
  N12      1.0000 0.96760  0.68674  0.90605  Biso   1.000  N 
  N13      1.0000 0.56472  0.18684  0.59397  Biso   1.000  N 
  N14      1.0000 0.56472  0.18683  0.40604  Biso   1.000  N 
  N15      1.0000 0.96759  0.31324  0.59394  Biso   1.000  N 
  N16      1.0000 0.96759  0.31324  0.40605  Biso   1.000  N 
  Zn1      1.0000 0.01610  0.49997  0.25000  Biso   1.000  Zn
  Zn2      1.0000 0.51610  0.99996  0.25001  Biso   1.000  Zn
  Zn3      1.0000 0.01610  0.49995  0.75000  Biso   1.000  Zn
  Zn4      1.0000 0.51610  0.99999  0.74999  Biso   1.000  Zn
