data_image0
_cell_length_a       26.6916
_cell_length_b       5.58304
_cell_length_c       7.34688
_cell_angle_alpha    90.0003
_cell_angle_beta     90.0004
_cell_angle_gamma    90.0007

_symmetry_space_group_name_H-M    "P 1"
_symmetry_int_tables_number       1

loop_
  _symmetry_equiv_pos_as_xyz
  'x, y, z'

loop_
  _atom_site_label
  _atom_site_occupancy
  _atom_site_fract_x
  _atom_site_fract_y
  _atom_site_fract_z
  _atom_site_thermal_displace_type
  _atom_site_B_iso_or_equiv
  _atom_site_type_symbol
  C1       1.0000 0.61098  0.76111  0.84931  Biso   1.000  C 
  C2       1.0000 0.74109  0.26390  0.50001  Biso   1.000  C 
  C3       1.0000 0.79122  0.23606  0.50001  Biso   1.000  C 
  C4       1.0000 0.29122  0.73606  0.49999  Biso   1.000  C 
  C5       1.0000 0.79122  0.76395  1.00000  Biso   1.000  C 
  C6       1.0000 0.29122  0.26395  0.00001  Biso   1.000  C 
  C7       1.0000 0.83694  0.78728  0.99999  Biso   1.000  C 
  C8       1.0000 0.61097  0.23892  0.65069  Biso   1.000  C 
  C9       1.0000 0.74109  0.73611  0.99999  Biso   1.000  C 
  C10      1.0000 0.11098  0.26109  0.15069  Biso   1.000  C 
  C11      1.0000 0.42135  0.76110  0.34932  Biso   1.000  C 
  C12      1.0000 0.92135  0.26108  0.34932  Biso   1.000  C 
  C13      1.0000 0.61098  0.23890  0.34932  Biso   1.000  C 
  C14      1.0000 0.92135  0.73889  0.15068  Biso   1.000  C 
  C15      1.0000 0.42135  0.23890  0.15068  Biso   1.000  C 
  C16      1.0000 0.42135  0.76110  0.65068  Biso   1.000  C 
  C17      1.0000 0.61098  0.76109  0.15069  Biso   1.000  C 
  C18      1.0000 0.11097  0.73891  0.34931  Biso   1.000  C 
  C19      1.0000 0.24109  0.76391  0.49999  Biso   1.000  C 
  C20      1.0000 0.92135  0.26109  0.65068  Biso   1.000  C 
  C21      1.0000 0.88935  0.77177  1.00000  Biso   1.000  C 
  C22      1.0000 0.19539  0.21268  0.00001  Biso   1.000  C 
  C23      1.0000 0.24109  0.23611  0.00001  Biso   1.000  C 
  C24      1.0000 0.11098  0.26109  0.84932  Biso   1.000  C 
  C25      1.0000 0.42135  0.23891  0.84933  Biso   1.000  C 
  C26      1.0000 0.92135  0.73889  0.84932  Biso   1.000  C 
  C27      1.0000 0.38935  0.72822  0.50000  Biso   1.000  C 
  C28      1.0000 0.88935  0.22821  0.50000  Biso   1.000  C 
  C29      1.0000 0.69538  0.28734  0.50001  Biso   1.000  C 
  C30      1.0000 0.64297  0.27177  0.50001  Biso   1.000  C 
  C31      1.0000 0.19538  0.78734  0.49999  Biso   1.000  C 
  C32      1.0000 0.14298  0.22825  0.00000  Biso   1.000  C 
  C33      1.0000 0.33694  0.28729  0.00001  Biso   1.000  C 
  C34      1.0000 0.83693  0.21273  0.50000  Biso   1.000  C 
  C35      1.0000 0.14297  0.77177  0.49999  Biso   1.000  C 
  C36      1.0000 0.33693  0.71274  0.50000  Biso   1.000  C 
  C37      1.0000 0.11097  0.73891  0.65068  Biso   1.000  C 
  C38      1.0000 0.69539  0.71269  1.00000  Biso   1.000  C 
  C39      1.0000 0.64298  0.72825  1.00000  Biso   1.000  C 
  C40      1.0000 0.38935  0.27179  0.00000  Biso   1.000  C 
  H1       1.0000 0.41207  0.75333  0.79416  Biso   1.000  H 
  H2       1.0000 0.62025  0.75327  0.29419  Biso   1.000  H 
  H3       1.0000 0.91207  0.74666  0.29416  Biso   1.000  H 
  H4       1.0000 0.41207  0.24668  0.29417  Biso   1.000  H 
  H5       1.0000 0.62025  0.24671  0.20582  Biso   1.000  H 
  H6       1.0000 0.12025  0.74673  0.20581  Biso   1.000  H 
  H7       1.0000 0.12025  0.25328  0.29419  Biso   1.000  H 
  H8       1.0000 0.91207  0.25331  0.20584  Biso   1.000  H 
  H9       1.0000 0.62025  0.24675  0.79419  Biso   1.000  H 
  H10      1.0000 0.91207  0.74668  0.70584  Biso   1.000  H 
  H11      1.0000 0.12025  0.25329  0.70581  Biso   1.000  H 
  H12      1.0000 0.41207  0.24669  0.70584  Biso   1.000  H 
  H13      1.0000 0.62025  0.75331  0.70581  Biso   1.000  H 
  H14      1.0000 0.91207  0.25332  0.79416  Biso   1.000  H 
  H15      1.0000 0.41207  0.75332  0.20584  Biso   1.000  H 
  H16      1.0000 0.12025  0.74673  0.79418  Biso   1.000  H 
  N1       1.0000 0.46773  0.18181  0.09345  Biso   1.000  N 
  N2       1.0000 0.56460  0.81812  0.90656  Biso   1.000  N 
  N3       1.0000 0.06460  0.31810  0.09344  Biso   1.000  N 
  N4       1.0000 0.06460  0.31810  0.90656  Biso   1.000  N 
  N5       1.0000 0.06460  0.68188  0.40656  Biso   1.000  N 
  N6       1.0000 0.06460  0.68187  0.59344  Biso   1.000  N 
  N7       1.0000 0.56460  0.81811  0.09344  Biso   1.000  N 
  N8       1.0000 0.96772  0.68180  0.09345  Biso   1.000  N 
  N9       1.0000 0.46772  0.81817  0.40656  Biso   1.000  N 
  N10      1.0000 0.46772  0.18182  0.90656  Biso   1.000  N 
  N11      1.0000 0.46772  0.81817  0.59345  Biso   1.000  N 
  N12      1.0000 0.96773  0.68181  0.90656  Biso   1.000  N 
  N13      1.0000 0.56460  0.18190  0.59344  Biso   1.000  N 
  N14      1.0000 0.56460  0.18188  0.40656  Biso   1.000  N 
  N15      1.0000 0.96772  0.31816  0.59345  Biso   1.000  N 
  N16      1.0000 0.96772  0.31816  0.40655  Biso   1.000  N 
  Zn1      1.0000 0.01618  0.49997  0.25000  Biso   1.000  Zn
  Zn2      1.0000 0.51619  0.99999  0.25000  Biso   1.000  Zn
  Zn3      1.0000 0.01619  0.49998  0.75000  Biso   1.000  Zn
  Zn4      1.0000 0.51618  0.00001  0.75000  Biso   1.000  Zn
