data_image0
_cell_length_a       25.1341
_cell_length_b       12.6024
_cell_length_c       7.32179
_cell_angle_alpha    89.9998
_cell_angle_beta     90
_cell_angle_gamma    89.9999

_symmetry_space_group_name_H-M    "P 1"
_symmetry_int_tables_number       1

loop_
  _symmetry_equiv_pos_as_xyz
  'x, y, z'

loop_
  _atom_site_label
  _atom_site_occupancy
  _atom_site_fract_x
  _atom_site_fract_y
  _atom_site_fract_z
  _atom_site_thermal_displace_type
  _atom_site_B_iso_or_equiv
  _atom_site_type_symbol
  C1       1.0000 0.61216  0.87286  0.84872  Biso   1.000  C 
  C2       1.0000 0.24074  0.26671  0.00000  Biso   1.000  C 
  C3       1.0000 0.11216  0.37286  0.84871  Biso   1.000  C 
  C4       1.0000 0.42019  0.12638  0.84872  Biso   1.000  C 
  C5       1.0000 0.92019  0.62639  0.84871  Biso   1.000  C 
  C6       1.0000 0.38882  0.84388  0.50000  Biso   1.000  C 
  C7       1.0000 0.88883  0.34387  0.50000  Biso   1.000  C 
  C8       1.0000 0.69477  0.20051  0.50001  Biso   1.000  C 
  C9       1.0000 0.64343  0.15729  0.50000  Biso   1.000  C 
  C10      1.0000 0.19477  0.70051  0.50000  Biso   1.000  C 
  C11      1.0000 0.14343  0.65729  0.49999  Biso   1.000  C 
  C12      1.0000 0.33735  0.80124  0.50001  Biso   1.000  C 
  C13      1.0000 0.11216  0.62714  0.65128  Biso   1.000  C 
  C14      1.0000 0.64342  0.84271  0.00000  Biso   1.000  C 
  C15      1.0000 0.14342  0.34271  1.00000  Biso   1.000  C 
  C16      1.0000 0.33735  0.19875  0.00001  Biso   1.000  C 
  C17      1.0000 0.83736  0.30123  0.50000  Biso   1.000  C 
  C18      1.0000 0.88882  0.65613  0.99999  Biso   1.000  C 
  C19      1.0000 0.19477  0.29949  1.00000  Biso   1.000  C 
  C20      1.0000 0.11216  0.62714  0.34871  Biso   1.000  C 
  C21      1.0000 0.38882  0.15612  0.00000  Biso   1.000  C 
  C22      1.0000 0.24074  0.73329  0.50001  Biso   1.000  C 
  C23      1.0000 0.74074  0.23329  0.50001  Biso   1.000  C 
  C24      1.0000 0.79133  0.26878  0.50000  Biso   1.000  C 
  C25      1.0000 0.29133  0.76879  0.50001  Biso   1.000  C 
  C26      1.0000 0.79133  0.73121  0.00000  Biso   1.000  C 
  C27      1.0000 0.29133  0.23120  0.00000  Biso   1.000  C 
  C28      1.0000 0.61216  0.12714  0.65129  Biso   1.000  C 
  C29      1.0000 0.74074  0.76671  0.00000  Biso   1.000  C 
  C30      1.0000 0.11216  0.37286  0.15128  Biso   1.000  C 
  C31      1.0000 0.83735  0.69876  1.00000  Biso   1.000  C 
  C32      1.0000 0.42019  0.12638  0.15129  Biso   1.000  C 
  C33      1.0000 0.42019  0.87362  0.65129  Biso   1.000  C 
  C34      1.0000 0.61216  0.87286  0.15128  Biso   1.000  C 
  C35      1.0000 0.42019  0.87362  0.34872  Biso   1.000  C 
  C36      1.0000 0.92019  0.37361  0.34871  Biso   1.000  C 
  C37      1.0000 0.61216  0.12714  0.34872  Biso   1.000  C 
  C38      1.0000 0.92019  0.37361  0.65128  Biso   1.000  C 
  C39      1.0000 0.92019  0.62639  0.15128  Biso   1.000  C 
  C40      1.0000 0.69477  0.79949  0.00000  Biso   1.000  C 
  H1       1.0000 0.62113  0.13455  0.79569  Biso   1.000  H 
  H2       1.0000 0.41119  0.86635  0.20432  Biso   1.000  H 
  H3       1.0000 0.12113  0.63455  0.79568  Biso   1.000  H 
  H4       1.0000 0.62113  0.86546  0.70431  Biso   1.000  H 
  H5       1.0000 0.91120  0.36635  0.79568  Biso   1.000  H 
  H6       1.0000 0.12113  0.36545  0.70431  Biso   1.000  H 
  H7       1.0000 0.41119  0.13365  0.70432  Biso   1.000  H 
  H8       1.0000 0.91120  0.63365  0.70431  Biso   1.000  H 
  H9       1.0000 0.12113  0.63455  0.20431  Biso   1.000  H 
  H10      1.0000 0.12113  0.36545  0.29568  Biso   1.000  H 
  H11      1.0000 0.41120  0.13364  0.29568  Biso   1.000  H 
  H12      1.0000 0.62113  0.13454  0.20431  Biso   1.000  H 
  H13      1.0000 0.62113  0.86545  0.29569  Biso   1.000  H 
  H14      1.0000 0.91120  0.63365  0.29567  Biso   1.000  H 
  H15      1.0000 0.91120  0.36635  0.20432  Biso   1.000  H 
  H16      1.0000 0.41120  0.86635  0.79568  Biso   1.000  H 
  N1       1.0000 0.96584  0.58206  0.90656  Biso   1.000  N 
  N2       1.0000 0.46584  0.91794  0.59343  Biso   1.000  N 
  N3       1.0000 0.46584  0.91794  0.40657  Biso   1.000  N 
  N4       1.0000 0.96584  0.41794  0.40657  Biso   1.000  N 
  N5       1.0000 0.96584  0.41794  0.59343  Biso   1.000  N 
  N6       1.0000 0.56666  0.08223  0.40657  Biso   1.000  N 
  N7       1.0000 0.46584  0.08206  0.90657  Biso   1.000  N 
  N8       1.0000 0.56666  0.08223  0.59344  Biso   1.000  N 
  N9       1.0000 0.06666  0.41778  0.09343  Biso   1.000  N 
  N10      1.0000 0.56665  0.91778  0.09344  Biso   1.000  N 
  N11      1.0000 0.56665  0.91778  0.90657  Biso   1.000  N 
  N12      1.0000 0.46584  0.08206  0.09343  Biso   1.000  N 
  N13      1.0000 0.96584  0.58206  0.09342  Biso   1.000  N 
  N14      1.0000 0.06666  0.58223  0.59343  Biso   1.000  N 
  N15      1.0000 0.06666  0.58222  0.40656  Biso   1.000  N 
  N16      1.0000 0.06665  0.41778  0.90656  Biso   1.000  N 
  Zn1      1.0000 0.51628  0.00001  0.25001  Biso   1.000  Zn
  Zn2      1.0000 0.01628  0.50001  0.74998  Biso   1.000  Zn
  Zn3      1.0000 0.01628  0.50000  0.24999  Biso   1.000  Zn
  Zn4      1.0000 0.51628  1.00000  0.75000  Biso   1.000  Zn
