data_image0
_cell_length_a       26.596
_cell_length_b       6.39999
_cell_length_c       7.4013
_cell_angle_alpha    90.0007
_cell_angle_beta     89.9999
_cell_angle_gamma    90

_symmetry_space_group_name_H-M    "P 1"
_symmetry_int_tables_number       1

loop_
  _symmetry_equiv_pos_as_xyz
  'x, y, z'

loop_
  _atom_site_label
  _atom_site_occupancy
  _atom_site_fract_x
  _atom_site_fract_y
  _atom_site_fract_z
  _atom_site_thermal_displace_type
  _atom_site_B_iso_or_equiv
  _atom_site_type_symbol
  C1       1.0000 0.61048  0.78237  0.85038  Biso   1.000  C 
  C2       1.0000 0.24091  0.24169  0.00000  Biso   1.000  C 
  C3       1.0000 0.11048  0.28237  0.85039  Biso   1.000  C 
  C4       1.0000 0.42185  0.21807  0.85040  Biso   1.000  C 
  C5       1.0000 0.92185  0.71809  0.85040  Biso   1.000  C 
  C6       1.0000 0.39001  0.74794  0.49999  Biso   1.000  C 
  C7       1.0000 0.19486  0.77214  0.50000  Biso   1.000  C 
  C8       1.0000 0.89001  0.24794  0.50001  Biso   1.000  C 
  C9       1.0000 0.69486  0.27214  0.50000  Biso   1.000  C 
  C10      1.0000 0.64233  0.25143  0.50000  Biso   1.000  C 
  C11      1.0000 0.64233  0.74856  1.00000  Biso   1.000  C 
  C12      1.0000 0.14233  0.24857  1.00000  Biso   1.000  C 
  C13      1.0000 0.33749  0.27301  0.00001  Biso   1.000  C 
  C14      1.0000 0.83749  0.22700  0.50000  Biso   1.000  C 
  C15      1.0000 0.14233  0.75143  0.50000  Biso   1.000  C 
  C16      1.0000 0.33749  0.72699  0.49999  Biso   1.000  C 
  C17      1.0000 0.11048  0.71763  0.64962  Biso   1.000  C 
  C18      1.0000 0.69486  0.72786  0.00000  Biso   1.000  C 
  C19      1.0000 0.19486  0.22787  1.00000  Biso   1.000  C 
  C20      1.0000 0.39001  0.25207  0.00000  Biso   1.000  C 
  C21      1.0000 0.92185  0.28194  0.64961  Biso   1.000  C 
  C22      1.0000 0.24091  0.75832  0.49999  Biso   1.000  C 
  C23      1.0000 0.74091  0.25832  0.50000  Biso   1.000  C 
  C24      1.0000 0.79144  0.24091  0.50000  Biso   1.000  C 
  C25      1.0000 0.29144  0.74091  0.49999  Biso   1.000  C 
  C26      1.0000 0.79144  0.75909  0.99999  Biso   1.000  C 
  C27      1.0000 0.29144  0.25910  0.00000  Biso   1.000  C 
  C28      1.0000 0.83749  0.77300  0.99999  Biso   1.000  C 
  C29      1.0000 0.61047  0.21764  0.64961  Biso   1.000  C 
  C30      1.0000 0.74091  0.74167  1.00000  Biso   1.000  C 
  C31      1.0000 0.11048  0.28237  0.14962  Biso   1.000  C 
  C32      1.0000 0.42185  0.78192  0.35039  Biso   1.000  C 
  C33      1.0000 0.92185  0.28192  0.35041  Biso   1.000  C 
  C34      1.0000 0.61048  0.21762  0.35038  Biso   1.000  C 
  C35      1.0000 0.92185  0.71806  0.14960  Biso   1.000  C 
  C36      1.0000 0.42185  0.21807  0.14960  Biso   1.000  C 
  C37      1.0000 0.42185  0.78193  0.64959  Biso   1.000  C 
  C38      1.0000 0.89001  0.75206  0.00000  Biso   1.000  C 
  C39      1.0000 0.61047  0.78235  0.14961  Biso   1.000  C 
  C40      1.0000 0.11047  0.71764  0.35039  Biso   1.000  C 
  H1       1.0000 0.41269  0.77348  0.20775  Biso   1.000  H 
  H2       1.0000 0.91268  0.27350  0.79225  Biso   1.000  H 
  H3       1.0000 0.61965  0.77391  0.70773  Biso   1.000  H 
  H4       1.0000 0.41268  0.22652  0.70775  Biso   1.000  H 
  H5       1.0000 0.11965  0.27389  0.70774  Biso   1.000  H 
  H6       1.0000 0.91269  0.72654  0.70776  Biso   1.000  H 
  H7       1.0000 0.61965  0.22612  0.79226  Biso   1.000  H 
  H8       1.0000 0.11965  0.72610  0.79226  Biso   1.000  H 
  H9       1.0000 0.91269  0.27347  0.20776  Biso   1.000  H 
  H10      1.0000 0.41269  0.77348  0.79224  Biso   1.000  H 
  H11      1.0000 0.11965  0.27391  0.29226  Biso   1.000  H 
  H12      1.0000 0.11965  0.72612  0.20774  Biso   1.000  H 
  H13      1.0000 0.61965  0.22608  0.20774  Biso   1.000  H 
  H14      1.0000 0.41269  0.22651  0.29224  Biso   1.000  H 
  H15      1.0000 0.91268  0.72649  0.29225  Biso   1.000  H 
  H16      1.0000 0.61965  0.77387  0.29226  Biso   1.000  H 
  N1       1.0000 0.96787  0.34003  0.59278  Biso   1.000  N 
  N2       1.0000 0.56443  0.15980  0.40721  Biso   1.000  N 
  N3       1.0000 0.56443  0.15981  0.59278  Biso   1.000  N 
  N4       1.0000 0.96787  0.65999  0.90724  Biso   1.000  N 
  N5       1.0000 0.46787  0.84002  0.59276  Biso   1.000  N 
  N6       1.0000 0.46787  0.84002  0.40722  Biso   1.000  N 
  N7       1.0000 0.46787  0.15997  0.90722  Biso   1.000  N 
  N8       1.0000 0.96787  0.34002  0.40724  Biso   1.000  N 
  N9       1.0000 0.96787  0.65997  0.09278  Biso   1.000  N 
  N10      1.0000 0.56443  0.84019  0.09278  Biso   1.000  N 
  N11      1.0000 0.06443  0.65980  0.59279  Biso   1.000  N 
  N12      1.0000 0.06443  0.65981  0.40722  Biso   1.000  N 
  N13      1.0000 0.06443  0.34020  0.90722  Biso   1.000  N 
  N14      1.0000 0.06443  0.34020  0.09279  Biso   1.000  N 
  N15      1.0000 0.56443  0.84020  0.90721  Biso   1.000  N 
  N16      1.0000 0.46787  0.15997  0.09277  Biso   1.000  N 
  Zn1      1.0000 0.51609  0.00000  0.24999  Biso   1.000  Zn
  Zn2      1.0000 0.01609  0.50000  0.75001  Biso   1.000  Zn
  Zn3      1.0000 0.01609  0.50000  0.25001  Biso   1.000  Zn
  Zn4      1.0000 0.51609  0.00000  0.74999  Biso   1.000  Zn
