data_image0
_cell_length_a       25.8006
_cell_length_b       10.8472
_cell_length_c       7.32572
_cell_angle_alpha    89.999
_cell_angle_beta     90
_cell_angle_gamma    90.0001

_symmetry_space_group_name_H-M    "P 1"
_symmetry_int_tables_number       1

loop_
  _symmetry_equiv_pos_as_xyz
  'x, y, z'

loop_
  _atom_site_label
  _atom_site_occupancy
  _atom_site_fract_x
  _atom_site_fract_y
  _atom_site_fract_z
  _atom_site_thermal_displace_type
  _atom_site_B_iso_or_equiv
  _atom_site_type_symbol
  C1       1.0000 0.61149  0.86049  0.84882  Biso   1.000  C 
  C2       1.0000 0.74072  0.23612  0.50000  Biso   1.000  C 
  C3       1.0000 0.79152  0.26508  0.50001  Biso   1.000  C 
  C4       1.0000 0.29152  0.76508  0.50000  Biso   1.000  C 
  C5       1.0000 0.79152  0.73492  0.99999  Biso   1.000  C 
  C6       1.0000 0.29152  0.23490  0.00001  Biso   1.000  C 
  C7       1.0000 0.61149  0.13952  0.65117  Biso   1.000  C 
  C8       1.0000 0.74072  0.76387  0.99999  Biso   1.000  C 
  C9       1.0000 0.11149  0.36048  0.15117  Biso   1.000  C 
  C10      1.0000 0.83772  0.70815  0.99999  Biso   1.000  C 
  C11      1.0000 0.42084  0.13904  0.15117  Biso   1.000  C 
  C12      1.0000 0.42085  0.86096  0.65117  Biso   1.000  C 
  C13      1.0000 0.61149  0.86048  0.15116  Biso   1.000  C 
  C14      1.0000 0.42084  0.86096  0.34882  Biso   1.000  C 
  C15      1.0000 0.92085  0.36095  0.34883  Biso   1.000  C 
  C16      1.0000 0.61149  0.13952  0.34883  Biso   1.000  C 
  C17      1.0000 0.92084  0.63904  0.15117  Biso   1.000  C 
  C18      1.0000 0.69453  0.79074  0.99999  Biso   1.000  C 
  C19      1.0000 0.24072  0.73612  0.50000  Biso   1.000  C 
  C20      1.0000 0.38940  0.16869  0.00000  Biso   1.000  C 
  C21      1.0000 0.92085  0.36096  0.65118  Biso   1.000  C 
  C22      1.0000 0.19452  0.29074  0.00001  Biso   1.000  C 
  C23      1.0000 0.24071  0.26386  0.00001  Biso   1.000  C 
  C24      1.0000 0.11149  0.36048  0.84884  Biso   1.000  C 
  C25      1.0000 0.42084  0.13904  0.84883  Biso   1.000  C 
  C26      1.0000 0.92084  0.63904  0.84883  Biso   1.000  C 
  C27      1.0000 0.38941  0.83130  0.50000  Biso   1.000  C 
  C28      1.0000 0.69453  0.20926  0.50000  Biso   1.000  C 
  C29      1.0000 0.64288  0.16950  0.50000  Biso   1.000  C 
  C30      1.0000 0.19453  0.70926  0.50000  Biso   1.000  C 
  C31      1.0000 0.88941  0.33130  0.50000  Biso   1.000  C 
  C32      1.0000 0.33772  0.79185  0.50000  Biso   1.000  C 
  C33      1.0000 0.11149  0.63952  0.65117  Biso   1.000  C 
  C34      1.0000 0.64287  0.83050  0.99999  Biso   1.000  C 
  C35      1.0000 0.14287  0.33050  0.00000  Biso   1.000  C 
  C36      1.0000 0.33772  0.20814  0.00001  Biso   1.000  C 
  C37      1.0000 0.83772  0.29185  0.50001  Biso   1.000  C 
  C38      1.0000 0.88940  0.66870  0.99999  Biso   1.000  C 
  C39      1.0000 0.14288  0.66950  0.50000  Biso   1.000  C 
  C40      1.0000 0.11149  0.63952  0.34883  Biso   1.000  C 
  H1       1.0000 0.12054  0.35352  0.29544  Biso   1.000  H 
  H2       1.0000 0.41178  0.85400  0.79543  Biso   1.000  H 
  H3       1.0000 0.91178  0.35399  0.20457  Biso   1.000  H 
  H4       1.0000 0.91177  0.64600  0.29544  Biso   1.000  H 
  H5       1.0000 0.62055  0.85352  0.29542  Biso   1.000  H 
  H6       1.0000 0.62055  0.14647  0.20457  Biso   1.000  H 
  H7       1.0000 0.41177  0.14600  0.29544  Biso   1.000  H 
  H8       1.0000 0.12055  0.64647  0.20457  Biso   1.000  H 
  H9       1.0000 0.41177  0.14600  0.70457  Biso   1.000  H 
  H10      1.0000 0.12055  0.35352  0.70458  Biso   1.000  H 
  H11      1.0000 0.91178  0.35400  0.79545  Biso   1.000  H 
  H12      1.0000 0.62055  0.85353  0.70456  Biso   1.000  H 
  H13      1.0000 0.12055  0.64648  0.79543  Biso   1.000  H 
  H14      1.0000 0.41178  0.85400  0.20456  Biso   1.000  H 
  H15      1.0000 0.62055  0.14648  0.79543  Biso   1.000  H 
  H16      1.0000 0.91178  0.64601  0.70456  Biso   1.000  H 
  N1       1.0000 0.06584  0.40596  0.90658  Biso   1.000  N 
  N2       1.0000 0.06585  0.59404  0.40658  Biso   1.000  N 
  N3       1.0000 0.06585  0.59405  0.59343  Biso   1.000  N 
  N4       1.0000 0.96656  0.59402  0.09343  Biso   1.000  N 
  N5       1.0000 0.46656  0.09403  0.09342  Biso   1.000  N 
  N6       1.0000 0.56585  0.90596  0.90658  Biso   1.000  N 
  N7       1.0000 0.56584  0.90596  0.09342  Biso   1.000  N 
  N8       1.0000 0.06584  0.40596  0.09343  Biso   1.000  N 
  N9       1.0000 0.56585  0.09404  0.40657  Biso   1.000  N 
  N10      1.0000 0.46656  0.09403  0.90657  Biso   1.000  N 
  N11      1.0000 0.96656  0.40598  0.59343  Biso   1.000  N 
  N12      1.0000 0.96656  0.40598  0.40657  Biso   1.000  N 
  N13      1.0000 0.46656  0.90598  0.40657  Biso   1.000  N 
  N14      1.0000 0.46656  0.90598  0.59342  Biso   1.000  N 
  N15      1.0000 0.96656  0.59403  0.90658  Biso   1.000  N 
  N16      1.0000 0.56585  0.09405  0.59342  Biso   1.000  N 
  Zn1      1.0000 0.01619  0.50001  0.24996  Biso   1.000  Zn
  Zn2      1.0000 0.51618  0.00000  0.25000  Biso   1.000  Zn
  Zn3      1.0000 0.01618  0.50001  0.75002  Biso   1.000  Zn
  Zn4      1.0000 0.51619  0.00001  0.74999  Biso   1.000  Zn
