data_image0
_cell_length_a       26.765
_cell_length_b       5.25438
_cell_length_c       7.24048
_cell_angle_alpha    90.001
_cell_angle_beta     89.9996
_cell_angle_gamma    90.0011

_symmetry_space_group_name_H-M    "P 1"
_symmetry_int_tables_number       1

loop_
  _symmetry_equiv_pos_as_xyz
  'x, y, z'

loop_
  _atom_site_label
  _atom_site_occupancy
  _atom_site_fract_x
  _atom_site_fract_y
  _atom_site_fract_z
  _atom_site_thermal_displace_type
  _atom_site_B_iso_or_equiv
  _atom_site_type_symbol
  C1       1.0000 0.61143  0.75502  0.84718  Biso   1.000  C 
  C2       1.0000 0.24121  0.23553  0.00001  Biso   1.000  C 
  C3       1.0000 0.11143  0.25500  0.84719  Biso   1.000  C 
  C4       1.0000 0.42090  0.24509  0.84720  Biso   1.000  C 
  C5       1.0000 0.92090  0.74507  0.84719  Biso   1.000  C 
  C6       1.0000 0.38886  0.72416  0.50000  Biso   1.000  C 
  C7       1.0000 0.88886  0.22415  0.50000  Biso   1.000  C 
  C8       1.0000 0.69567  0.28909  0.50000  Biso   1.000  C 
  C9       1.0000 0.64347  0.27567  0.50000  Biso   1.000  C 
  C10      1.0000 0.19567  0.78910  0.49999  Biso   1.000  C 
  C11      1.0000 0.14347  0.22436  0.00000  Biso   1.000  C 
  C12      1.0000 0.33666  0.28939  0.00001  Biso   1.000  C 
  C13      1.0000 0.83666  0.21060  0.50000  Biso   1.000  C 
  C14      1.0000 0.14347  0.77567  0.49999  Biso   1.000  C 
  C15      1.0000 0.33666  0.71061  0.50000  Biso   1.000  C 
  C16      1.0000 0.11143  0.74501  0.65281  Biso   1.000  C 
  C17      1.0000 0.64347  0.72436  0.99999  Biso   1.000  C 
  C18      1.0000 0.38886  0.27585  0.00001  Biso   1.000  C 
  C19      1.0000 0.19567  0.21092  1.00000  Biso   1.000  C 
  C20      1.0000 0.88886  0.77583  1.00000  Biso   1.000  C 
  C21      1.0000 0.69567  0.71092  0.99999  Biso   1.000  C 
  C22      1.0000 0.24121  0.76450  0.49999  Biso   1.000  C 
  C23      1.0000 0.74121  0.26449  0.50000  Biso   1.000  C 
  C24      1.0000 0.79111  0.23504  0.50000  Biso   1.000  C 
  C25      1.0000 0.29111  0.73505  0.49999  Biso   1.000  C 
  C26      1.0000 0.79111  0.76497  0.99999  Biso   1.000  C 
  C27      1.0000 0.29111  0.26498  0.00002  Biso   1.000  C 
  C28      1.0000 0.61142  0.24503  0.65281  Biso   1.000  C 
  C29      1.0000 0.74121  0.73552  0.99999  Biso   1.000  C 
  C30      1.0000 0.11143  0.25499  0.15282  Biso   1.000  C 
  C31      1.0000 0.83666  0.78938  0.99999  Biso   1.000  C 
  C32      1.0000 0.92090  0.25490  0.34719  Biso   1.000  C 
  C33      1.0000 0.61143  0.24500  0.34719  Biso   1.000  C 
  C34      1.0000 0.92090  0.74507  0.15281  Biso   1.000  C 
  C35      1.0000 0.42090  0.24508  0.15282  Biso   1.000  C 
  C36      1.0000 0.42090  0.75492  0.65281  Biso   1.000  C 
  C37      1.0000 0.61143  0.75499  0.15281  Biso   1.000  C 
  C38      1.0000 0.11143  0.74502  0.34718  Biso   1.000  C 
  C39      1.0000 0.42090  0.75491  0.34719  Biso   1.000  C 
  C40      1.0000 0.92090  0.25490  0.65281  Biso   1.000  C 
  H1       1.0000 0.91151  0.75135  0.70184  Biso   1.000  H 
  H2       1.0000 0.12082  0.75133  0.79815  Biso   1.000  H 
  H3       1.0000 0.41151  0.74863  0.20184  Biso   1.000  H 
  H4       1.0000 0.91151  0.24862  0.79816  Biso   1.000  H 
  H5       1.0000 0.62082  0.74871  0.70184  Biso   1.000  H 
  H6       1.0000 0.41151  0.25138  0.70185  Biso   1.000  H 
  H7       1.0000 0.12082  0.24868  0.70185  Biso   1.000  H 
  H8       1.0000 0.62082  0.25136  0.79816  Biso   1.000  H 
  H9       1.0000 0.12082  0.24868  0.29816  Biso   1.000  H 
  H10      1.0000 0.12082  0.75134  0.20184  Biso   1.000  H 
  H11      1.0000 0.62082  0.25132  0.20184  Biso   1.000  H 
  H12      1.0000 0.41151  0.25135  0.29817  Biso   1.000  H 
  H13      1.0000 0.91151  0.75135  0.29815  Biso   1.000  H 
  H14      1.0000 0.62082  0.74866  0.29815  Biso   1.000  H 
  H15      1.0000 0.41151  0.74865  0.79816  Biso   1.000  H 
  H16      1.0000 0.91151  0.24862  0.20184  Biso   1.000  H 
  N1       1.0000 0.96746  0.30746  0.40523  Biso   1.000  N 
  N2       1.0000 0.96746  0.30746  0.59476  Biso   1.000  N 
  N3       1.0000 0.56486  0.19249  0.40522  Biso   1.000  N 
  N4       1.0000 0.56486  0.19251  0.59477  Biso   1.000  N 
  N5       1.0000 0.96746  0.69249  0.90524  Biso   1.000  N 
  N6       1.0000 0.46746  0.80748  0.59477  Biso   1.000  N 
  N7       1.0000 0.46746  0.19252  0.90524  Biso   1.000  N 
  N8       1.0000 0.46746  0.80748  0.40523  Biso   1.000  N 
  N9       1.0000 0.06486  0.69248  0.59477  Biso   1.000  N 
  N10      1.0000 0.56486  0.80751  0.09477  Biso   1.000  N 
  N11      1.0000 0.06486  0.69248  0.40523  Biso   1.000  N 
  N12      1.0000 0.06486  0.30750  0.90523  Biso   1.000  N 
  N13      1.0000 0.06486  0.30750  0.09478  Biso   1.000  N 
  N14      1.0000 0.56486  0.80753  0.90522  Biso   1.000  N 
  N15      1.0000 0.46746  0.19251  0.09477  Biso   1.000  N 
  N16      1.0000 0.96746  0.69249  0.09477  Biso   1.000  N 
  Zn1      1.0000 0.01613  0.49997  0.75000  Biso   1.000  Zn
  Zn2      1.0000 0.01613  0.49998  0.25000  Biso   1.000  Zn
  Zn3      1.0000 0.51613  0.99999  0.24999  Biso   1.000  Zn
  Zn4      1.0000 0.51613  0.00002  0.75000  Biso   1.000  Zn
