data_image0
_cell_length_a       24.8571
_cell_length_b       7.09765
_cell_length_c       6.94397
_cell_angle_alpha    89.9878
_cell_angle_beta     87.9722
_cell_angle_gamma    90.0059

_symmetry_space_group_name_H-M    "P 1"
_symmetry_int_tables_number       1

loop_
  _symmetry_equiv_pos_as_xyz
  'x, y, z'

loop_
  _atom_site_label
  _atom_site_occupancy
  _atom_site_fract_x
  _atom_site_fract_y
  _atom_site_fract_z
  _atom_site_thermal_displace_type
  _atom_site_B_iso_or_equiv
  _atom_site_type_symbol
  C1       1.0000 0.39407  0.86102  0.17399  Biso   1.000  C 
  C2       1.0000 0.10593  0.36050  0.32609  Biso   1.000  C 
  C3       1.0000 0.59527  0.25262  0.12060  Biso   1.000  C 
  C4       1.0000 0.90471  0.24744  0.87922  Biso   1.000  C 
  C5       1.0000 0.80691  0.25394  0.01810  Biso   1.000  C 
  C6       1.0000 0.86534  0.27375  0.02769  Biso   1.000  C 
  C7       1.0000 0.89401  0.36052  0.17465  Biso   1.000  C 
  C8       1.0000 0.27239  0.85768  0.14386  Biso   1.000  C 
  C9       1.0000 0.21686  0.85385  0.12635  Biso   1.000  C 
  C10      1.0000 0.30692  0.75415  0.01791  Biso   1.000  C 
  C11      1.0000 0.71683  0.35393  0.12603  Biso   1.000  C 
  C12      1.0000 0.69309  0.75420  0.48181  Biso   1.000  C 
  C13      1.0000 0.78320  0.85381  0.37379  Biso   1.000  C 
  C14      1.0000 0.72768  0.85768  0.35598  Biso   1.000  C 
  C15      1.0000 0.36536  0.77415  0.02717  Biso   1.000  C 
  C16      1.0000 0.40469  0.74791  0.87853  Biso   1.000  C 
  C17      1.0000 0.63466  0.77424  0.47227  Biso   1.000  C 
  C18      1.0000 0.77235  0.35755  0.14388  Biso   1.000  C 
  C19      1.0000 0.71682  0.64625  0.62611  Biso   1.000  C 
  C20      1.0000 0.60599  0.86120  0.32535  Biso   1.000  C 
  C21      1.0000 0.77234  0.64238  0.64391  Biso   1.000  C 
  C22      1.0000 0.59528  0.74790  0.62074  Biso   1.000  C 
  C23      1.0000 0.09533  0.24759  0.62169  Biso   1.000  C 
  C24      1.0000 0.80693  0.74585  0.51809  Biso   1.000  C 
  C25      1.0000 0.86536  0.72577  0.52763  Biso   1.000  C 
  C26      1.0000 0.90474  0.75196  0.37913  Biso   1.000  C 
  C27      1.0000 0.28312  0.35403  0.37376  Biso   1.000  C 
  C28      1.0000 0.22759  0.35769  0.35632  Biso   1.000  C 
  C29      1.0000 0.60597  0.13935  0.82524  Biso   1.000  C 
  C30      1.0000 0.63465  0.22626  0.97214  Biso   1.000  C 
  C31      1.0000 0.69308  0.24612  0.98172  Biso   1.000  C 
  C32      1.0000 0.78315  0.14615  0.87379  Biso   1.000  C 
  C33      1.0000 0.72764  0.14253  0.85592  Biso   1.000  C 
  C34      1.0000 0.10593  0.63903  0.82612  Biso   1.000  C 
  C35      1.0000 0.09529  0.75199  0.12162  Biso   1.000  C 
  C36      1.0000 0.19306  0.74589  0.98227  Biso   1.000  C 
  C37      1.0000 0.22759  0.64235  0.85633  Biso   1.000  C 
  C38      1.0000 0.40469  0.25248  0.37842  Biso   1.000  C 
  C39      1.0000 0.36537  0.22621  0.52708  Biso   1.000  C 
  C40      1.0000 0.30694  0.24610  0.51785  Biso   1.000  C 
  C41      1.0000 0.21690  0.14606  0.62638  Biso   1.000  C 
  C42      1.0000 0.27243  0.14240  0.64383  Biso   1.000  C 
  C43      1.0000 0.89402  0.63890  0.67462  Biso   1.000  C 
  C44      1.0000 0.13463  0.72586  0.97299  Biso   1.000  C 
  C45      1.0000 0.13465  0.27380  0.47301  Biso   1.000  C 
  C46      1.0000 0.28312  0.64619  0.87382  Biso   1.000  C 
  C47      1.0000 0.19308  0.25398  0.48228  Biso   1.000  C 
  C48      1.0000 0.39408  0.13938  0.67394  Biso   1.000  C 
  Co1      1.0000 1.00000  0.46473  0.75054  Biso   1.000  Co
  Co2      1.0000 0.50000  0.96526  0.74948  Biso   1.000  Co
  Co3      1.0000 0.50001  0.03526  0.24946  Biso   1.000  Co
  Co4      1.0000 1.00000  0.53450  0.25048  Biso   1.000  Co
  H1       1.0000 0.71093  0.05378  0.74474  Biso   1.000  H 
  H2       1.0000 0.21082  0.44655  0.24531  Biso   1.000  H 
  H3       1.0000 0.09942  0.80904  0.26549  Biso   1.000  H 
  H4       1.0000 0.11992  0.59592  0.68306  Biso   1.000  H 
  H5       1.0000 0.87999  0.40374  0.31764  Biso   1.000  H 
  H6       1.0000 0.59938  0.30978  0.26444  Biso   1.000  H 
  H7       1.0000 0.61999  0.09605  0.68228  Biso   1.000  H 
  H8       1.0000 0.30821  0.43784  0.27428  Biso   1.000  H 
  H9       1.0000 0.21086  0.55346  0.74531  Biso   1.000  H 
  H10      1.0000 0.30823  0.56249  0.77435  Biso   1.000  H 
  H11      1.0000 0.40054  0.69080  0.73470  Biso   1.000  H 
  H12      1.0000 0.09948  0.19061  0.76561  Biso   1.000  H 
  H13      1.0000 0.28912  0.94656  0.25489  Biso   1.000  H 
  H14      1.0000 0.80828  0.06240  0.77443  Biso   1.000  H 
  H15      1.0000 0.62002  0.90451  0.18238  Biso   1.000  H 
  H16      1.0000 0.78905  0.44632  0.25504  Biso   1.000  H 
  H17      1.0000 0.78901  0.55349  0.75509  Biso   1.000  H 
  H18      1.0000 0.11991  0.40363  0.18299  Biso   1.000  H 
  H19      1.0000 0.59938  0.69072  0.76460  Biso   1.000  H 
  H20      1.0000 0.19175  0.93755  0.22583  Biso   1.000  H 
  H21      1.0000 0.69170  0.43768  0.22538  Biso   1.000  H 
  H22      1.0000 0.38009  0.90421  0.31703  Biso   1.000  H 
  H23      1.0000 0.38011  0.09618  0.81701  Biso   1.000  H 
  H24      1.0000 0.40054  0.30955  0.23454  Biso   1.000  H 
  H25      1.0000 0.90060  0.19039  0.73533  Biso   1.000  H 
  H26      1.0000 0.71101  0.94655  0.24480  Biso   1.000  H 
  H27      1.0000 0.80836  0.93748  0.27440  Biso   1.000  H 
  H28      1.0000 0.88000  0.59572  0.81765  Biso   1.000  H 
  H29      1.0000 0.90064  0.80905  0.23524  Biso   1.000  H 
  H30      1.0000 0.69166  0.56257  0.72551  Biso   1.000  H 
  H31      1.0000 0.19181  0.06224  0.72586  Biso   1.000  H 
  H32      1.0000 0.28919  0.05354  0.75484  Biso   1.000  H 
  N1       1.0000 0.94555  0.60857  0.61467  Biso   1.000  N 
  N2       1.0000 0.54770  0.17873  0.06905  Biso   1.000  N 
  N3       1.0000 0.05442  0.39070  0.38624  Biso   1.000  N 
  N4       1.0000 0.04771  0.67806  0.07014  Biso   1.000  N 
  N5       1.0000 0.05442  0.60867  0.88624  Biso   1.000  N 
  N6       1.0000 0.45228  0.17862  0.42986  Biso   1.000  N 
  N7       1.0000 0.55446  0.89143  0.38531  Biso   1.000  N 
  N8       1.0000 0.95230  0.67803  0.43077  Biso   1.000  N 
  N9       1.0000 0.04773  0.32135  0.57020  Biso   1.000  N 
  N10      1.0000 0.94555  0.39071  0.11471  Biso   1.000  N 
  N11      1.0000 0.95229  0.32122  0.93085  Biso   1.000  N 
  N12      1.0000 0.55444  0.10913  0.88524  Biso   1.000  N 
  N13      1.0000 0.44558  0.89131  0.11382  Biso   1.000  N 
  N14      1.0000 0.44559  0.10915  0.61376  Biso   1.000  N 
  N15      1.0000 0.45227  0.82183  0.92994  Biso   1.000  N 
  N16      1.0000 0.54772  0.82183  0.56916  Biso   1.000  N 
