data_image0
_cell_length_a       20.3624
_cell_length_b       17.322
_cell_length_c       6.69296
_cell_angle_alpha    90.0015
_cell_angle_beta     100.256
_cell_angle_gamma    89.9999

_symmetry_space_group_name_H-M    "P 1"
_symmetry_int_tables_number       1

loop_
  _symmetry_equiv_pos_as_xyz
  'x, y, z'

loop_
  _atom_site_label
  _atom_site_occupancy
  _atom_site_fract_x
  _atom_site_fract_y
  _atom_site_fract_z
  _atom_site_thermal_displace_type
  _atom_site_B_iso_or_equiv
  _atom_site_type_symbol
  C1       1.0000 0.38236  0.91448  0.14018  Biso   1.000  C 
  C2       1.0000 0.19603  0.30264  0.50139  Biso   1.000  C 
  C3       1.0000 0.28069  0.24532  0.33100  Biso   1.000  C 
  C4       1.0000 0.22820  0.29650  0.33238  Biso   1.000  C 
  C5       1.0000 0.61764  0.08552  0.85982  Biso   1.000  C 
  C6       1.0000 0.64091  0.14344  0.00264  Biso   1.000  C 
  C7       1.0000 0.69604  0.19735  0.00143  Biso   1.000  C 
  C8       1.0000 0.78069  0.25468  0.83102  Biso   1.000  C 
  C9       1.0000 0.72820  0.20349  0.83241  Biso   1.000  C 
  C10      1.0000 0.11764  0.58552  0.85982  Biso   1.000  C 
  C11      1.0000 0.09834  0.63693  0.14645  Biso   1.000  C 
  C12      1.0000 0.19603  0.69735  0.00141  Biso   1.000  C 
  C13      1.0000 0.28069  0.75467  0.83101  Biso   1.000  C 
  C14      1.0000 0.22821  0.70349  0.83240  Biso   1.000  C 
  C15      1.0000 0.38236  0.08552  0.64017  Biso   1.000  C 
  C16      1.0000 0.40166  0.13694  0.35355  Biso   1.000  C 
  C17      1.0000 0.35909  0.14345  0.49737  Biso   1.000  C 
  C18      1.0000 0.30397  0.19736  0.49858  Biso   1.000  C 
  C19      1.0000 0.21931  0.25468  0.66898  Biso   1.000  C 
  C20      1.0000 0.27180  0.20350  0.66760  Biso   1.000  C 
  C21      1.0000 0.88236  0.58552  0.64017  Biso   1.000  C 
  C22      1.0000 0.14091  0.64344  0.00263  Biso   1.000  C 
  C23      1.0000 0.14091  0.35656  0.50262  Biso   1.000  C 
  C24      1.0000 0.90166  0.63693  0.35355  Biso   1.000  C 
  C25      1.0000 0.85909  0.64344  0.49737  Biso   1.000  C 
  C26      1.0000 0.80397  0.69736  0.49860  Biso   1.000  C 
  C27      1.0000 0.77180  0.70350  0.66761  Biso   1.000  C 
  C28      1.0000 0.09833  0.36306  0.64643  Biso   1.000  C 
  C29      1.0000 0.11764  0.41448  0.35982  Biso   1.000  C 
  C30      1.0000 0.59834  0.13693  0.14646  Biso   1.000  C 
  C31      1.0000 0.90166  0.36306  0.85355  Biso   1.000  C 
  C32      1.0000 0.80397  0.30264  0.99861  Biso   1.000  C 
  C33      1.0000 0.85909  0.35656  0.99738  Biso   1.000  C 
  C34      1.0000 0.88236  0.41448  0.14018  Biso   1.000  C 
  C35      1.0000 0.27180  0.79650  0.16761  Biso   1.000  C 
  C36      1.0000 0.21931  0.74532  0.16899  Biso   1.000  C 
  C37      1.0000 0.30397  0.80264  0.99859  Biso   1.000  C 
  C38      1.0000 0.71931  0.24532  0.16901  Biso   1.000  C 
  C39      1.0000 0.59834  0.86307  0.64644  Biso   1.000  C 
  C40      1.0000 0.69603  0.80265  0.50142  Biso   1.000  C 
  C41      1.0000 0.78069  0.74532  0.33101  Biso   1.000  C 
  C42      1.0000 0.72820  0.79650  0.33240  Biso   1.000  C 
  C43      1.0000 0.35909  0.85655  0.99737  Biso   1.000  C 
  C44      1.0000 0.40166  0.86306  0.85355  Biso   1.000  C 
  C45      1.0000 0.64091  0.85656  0.50263  Biso   1.000  C 
  C46      1.0000 0.77180  0.29650  0.16763  Biso   1.000  C 
  C47      1.0000 0.71931  0.75468  0.66900  Biso   1.000  C 
  C48      1.0000 0.61764  0.91448  0.35982  Biso   1.000  C 
  Co1      1.0000 1.00000  0.51906  0.24999  Biso   1.000  Co
  Co2      1.0000 0.50000  0.01906  0.25000  Biso   1.000  Co
  Co3      1.0000 0.50000  0.98094  0.75000  Biso   1.000  Co
  Co4      1.0000 1.00000  0.48093  0.74999  Biso   1.000  Co
  H1       1.0000 0.28835  0.16774  0.80130  Biso   1.000  H 
  H2       1.0000 0.69617  0.75768  0.80385  Biso   1.000  H 
  H3       1.0000 0.90244  0.66962  0.21552  Biso   1.000  H 
  H4       1.0000 0.86493  0.56876  0.77814  Biso   1.000  H 
  H5       1.0000 0.80383  0.74232  0.19616  Biso   1.000  H 
  H6       1.0000 0.71164  0.83226  0.19870  Biso   1.000  H 
  H7       1.0000 0.13506  0.43124  0.22185  Biso   1.000  H 
  H8       1.0000 0.90244  0.33038  0.71552  Biso   1.000  H 
  H9       1.0000 0.40244  0.16962  0.21551  Biso   1.000  H 
  H10      1.0000 0.36494  0.06877  0.77814  Biso   1.000  H 
  H11      1.0000 0.36494  0.93124  0.27815  Biso   1.000  H 
  H12      1.0000 0.69617  0.24232  0.30386  Biso   1.000  H 
  H13      1.0000 0.19617  0.74233  0.30384  Biso   1.000  H 
  H14      1.0000 0.59756  0.83039  0.78448  Biso   1.000  H 
  H15      1.0000 0.78836  0.66774  0.80131  Biso   1.000  H 
  H16      1.0000 0.19617  0.25768  0.80383  Biso   1.000  H 
  H17      1.0000 0.63507  0.93124  0.22186  Biso   1.000  H 
  H18      1.0000 0.21164  0.33227  0.19869  Biso   1.000  H 
  H19      1.0000 0.09756  0.66962  0.28448  Biso   1.000  H 
  H20      1.0000 0.13506  0.56876  0.72184  Biso   1.000  H 
  H21      1.0000 0.86494  0.43125  0.27815  Biso   1.000  H 
  H22      1.0000 0.59756  0.16962  0.28449  Biso   1.000  H 
  H23      1.0000 0.63506  0.06876  0.72185  Biso   1.000  H 
  H24      1.0000 0.80383  0.25768  0.69617  Biso   1.000  H 
  H25      1.0000 0.71164  0.16773  0.69871  Biso   1.000  H 
  H26      1.0000 0.78836  0.33226  0.30133  Biso   1.000  H 
  H27      1.0000 0.21165  0.66773  0.69870  Biso   1.000  H 
  H28      1.0000 0.30383  0.75767  0.69617  Biso   1.000  H 
  H29      1.0000 0.40244  0.83038  0.71551  Biso   1.000  H 
  H30      1.0000 0.09755  0.33038  0.78446  Biso   1.000  H 
  H31      1.0000 0.28836  0.83227  0.30131  Biso   1.000  H 
  H32      1.0000 0.30383  0.24232  0.19615  Biso   1.000  H 
  N1       1.0000 0.43442  0.95193  0.08473  Biso   1.000  N 
  N2       1.0000 0.56557  0.04807  0.91526  Biso   1.000  N 
  N3       1.0000 0.94656  0.41996  0.90795  Biso   1.000  N 
  N4       1.0000 0.94656  0.58004  0.40796  Biso   1.000  N 
  N5       1.0000 0.93442  0.54807  0.58473  Biso   1.000  N 
  N6       1.0000 0.93443  0.45193  0.08473  Biso   1.000  N 
  N7       1.0000 0.05344  0.41996  0.59203  Biso   1.000  N 
  N8       1.0000 0.43442  0.04807  0.58473  Biso   1.000  N 
  N9       1.0000 0.56557  0.95193  0.41526  Biso   1.000  N 
  N10      1.0000 0.44656  0.08004  0.40795  Biso   1.000  N 
  N11      1.0000 0.44656  0.91996  0.90795  Biso   1.000  N 
  N12      1.0000 0.06557  0.54807  0.91526  Biso   1.000  N 
  N13      1.0000 0.05344  0.58004  0.09204  Biso   1.000  N 
  N14      1.0000 0.06557  0.45193  0.41526  Biso   1.000  N 
  N15      1.0000 0.55344  0.08004  0.09204  Biso   1.000  N 
  N16      1.0000 0.55344  0.91996  0.59203  Biso   1.000  N 
