data_image0
_cell_length_a       24.8098
_cell_length_b       7.72797
_cell_length_c       6.92429
_cell_angle_alpha    89.9795
_cell_angle_beta     89.0168
_cell_angle_gamma    90.0061

_symmetry_space_group_name_H-M    "P 1"
_symmetry_int_tables_number       1

loop_
  _symmetry_equiv_pos_as_xyz
  'x, y, z'

loop_
  _atom_site_label
  _atom_site_occupancy
  _atom_site_fract_x
  _atom_site_fract_y
  _atom_site_fract_z
  _atom_site_thermal_displace_type
  _atom_site_B_iso_or_equiv
  _atom_site_type_symbol
  C1       1.0000 0.39401  0.87346  0.17086  Biso   1.000  C 
  C2       1.0000 0.28365  0.34586  0.37750  Biso   1.000  C 
  C3       1.0000 0.22798  0.35758  0.36133  Biso   1.000  C 
  C4       1.0000 0.60601  0.12693  0.82841  Biso   1.000  C 
  C5       1.0000 0.63460  0.21197  0.97426  Biso   1.000  C 
  C6       1.0000 0.69292  0.23781  0.98297  Biso   1.000  C 
  C7       1.0000 0.78367  0.15424  0.87742  Biso   1.000  C 
  C8       1.0000 0.72801  0.14255  0.86087  Biso   1.000  C 
  C9       1.0000 0.10600  0.62665  0.82928  Biso   1.000  C 
  C10      1.0000 0.09551  0.73571  0.12257  Biso   1.000  C 
  C11      1.0000 0.19292  0.73769  0.98363  Biso   1.000  C 
  C12      1.0000 0.22799  0.64252  0.86137  Biso   1.000  C 
  C13      1.0000 0.39403  0.12689  0.67078  Biso   1.000  C 
  C14      1.0000 0.40447  0.23613  0.37747  Biso   1.000  C 
  C15      1.0000 0.36540  0.21187  0.52497  Biso   1.000  C 
  C16      1.0000 0.30708  0.23776  0.51659  Biso   1.000  C 
  C17      1.0000 0.21638  0.15415  0.62275  Biso   1.000  C 
  C18      1.0000 0.27205  0.14240  0.63891  Biso   1.000  C 
  C19      1.0000 0.89396  0.62649  0.67136  Biso   1.000  C 
  C20      1.0000 0.13460  0.71163  0.97514  Biso   1.000  C 
  C21      1.0000 0.13463  0.28806  0.47517  Biso   1.000  C 
  C22      1.0000 0.28365  0.65440  0.87759  Biso   1.000  C 
  C23      1.0000 0.19295  0.26222  0.48363  Biso   1.000  C 
  C24      1.0000 0.90450  0.73568  0.37805  Biso   1.000  C 
  C25      1.0000 0.86539  0.71152  0.52539  Biso   1.000  C 
  C26      1.0000 0.80708  0.73761  0.51671  Biso   1.000  C 
  C27      1.0000 0.09556  0.26389  0.62268  Biso   1.000  C 
  C28      1.0000 0.10599  0.37290  0.32926  Biso   1.000  C 
  C29      1.0000 0.59549  0.23627  0.12157  Biso   1.000  C 
  C30      1.0000 0.90448  0.26376  0.87820  Biso   1.000  C 
  C31      1.0000 0.80704  0.26219  0.01671  Biso   1.000  C 
  C32      1.0000 0.86536  0.28801  0.02548  Biso   1.000  C 
  C33      1.0000 0.89396  0.37291  0.17143  Biso   1.000  C 
  C34      1.0000 0.27198  0.85767  0.13896  Biso   1.000  C 
  C35      1.0000 0.21631  0.84579  0.12274  Biso   1.000  C 
  C36      1.0000 0.30705  0.76251  0.01668  Biso   1.000  C 
  C37      1.0000 0.71629  0.34576  0.12226  Biso   1.000  C 
  C38      1.0000 0.69296  0.76252  0.48311  Biso   1.000  C 
  C39      1.0000 0.78374  0.84575  0.37744  Biso   1.000  C 
  C40      1.0000 0.72808  0.85768  0.36092  Biso   1.000  C 
  C41      1.0000 0.36537  0.78848  0.02510  Biso   1.000  C 
  C42      1.0000 0.40444  0.76423  0.87763  Biso   1.000  C 
  C43      1.0000 0.63464  0.78855  0.47447  Biso   1.000  C 
  C44      1.0000 0.77196  0.35746  0.13881  Biso   1.000  C 
  C45      1.0000 0.71630  0.65437  0.62237  Biso   1.000  C 
  C46      1.0000 0.60606  0.87365  0.32858  Biso   1.000  C 
  C47      1.0000 0.77196  0.64243  0.63887  Biso   1.000  C 
  C48      1.0000 0.59553  0.76420  0.62178  Biso   1.000  C 
  Co1      1.0000 1.00000  0.53522  0.25051  Biso   1.000  Co
  Co2      1.0000 0.50001  0.03582  0.24948  Biso   1.000  Co
  Co3      1.0000 0.50000  0.96451  0.74949  Biso   1.000  Co
  Co4      1.0000 1.00000  0.46410  0.75052  Biso   1.000  Co
  H1       1.0000 0.90027  0.20824  0.73514  Biso   1.000  H 
  H2       1.0000 0.59975  0.70858  0.76482  Biso   1.000  H 
  H3       1.0000 0.19072  0.92327  0.21891  Biso   1.000  H 
  H4       1.0000 0.69070  0.42332  0.21834  Biso   1.000  H 
  H5       1.0000 0.38017  0.91511  0.31290  Biso   1.000  H 
  H6       1.0000 0.38022  0.08528  0.81290  Biso   1.000  H 
  H7       1.0000 0.40021  0.29168  0.23440  Biso   1.000  H 
  H8       1.0000 0.28849  0.05402  0.74570  Biso   1.000  H 
  H9       1.0000 0.71172  0.94607  0.25396  Biso   1.000  H 
  H10      1.0000 0.80937  0.92323  0.28132  Biso   1.000  H 
  H11      1.0000 0.88009  0.58492  0.81343  Biso   1.000  H 
  H12      1.0000 0.90030  0.79119  0.23495  Biso   1.000  H 
  H13      1.0000 0.69067  0.57687  0.71847  Biso   1.000  H 
  H14      1.0000 0.19082  0.07649  0.71891  Biso   1.000  H 
  H15      1.0000 0.78833  0.55405  0.74583  Biso   1.000  H 
  H16      1.0000 0.11981  0.41443  0.18712  Biso   1.000  H 
  H17      1.0000 0.61993  0.91539  0.18657  Biso   1.000  H 
  H18      1.0000 0.80927  0.07669  0.78134  Biso   1.000  H 
  H19      1.0000 0.28839  0.94602  0.24579  Biso   1.000  H 
  H20      1.0000 0.09982  0.20847  0.76581  Biso   1.000  H 
  H21      1.0000 0.40018  0.70868  0.73461  Biso   1.000  H 
  H22      1.0000 0.30924  0.57689  0.78144  Biso   1.000  H 
  H23      1.0000 0.21157  0.55417  0.75455  Biso   1.000  H 
  H24      1.0000 0.78836  0.44570  0.24576  Biso   1.000  H 
  H25      1.0000 0.30922  0.42349  0.28132  Biso   1.000  H 
  H26      1.0000 0.61989  0.08520  0.68643  Biso   1.000  H 
  H27      1.0000 0.59970  0.29194  0.26455  Biso   1.000  H 
  H28      1.0000 0.88008  0.41455  0.31344  Biso   1.000  H 
  H29      1.0000 0.11985  0.58512  0.68721  Biso   1.000  H 
  H30      1.0000 0.09974  0.79121  0.26562  Biso   1.000  H 
  H31      1.0000 0.21155  0.44596  0.25452  Biso   1.000  H 
  H32      1.0000 0.71161  0.05429  0.75393  Biso   1.000  H 
  N1       1.0000 0.44532  0.09739  0.61135  Biso   1.000  N 
  N2       1.0000 0.44530  0.90296  0.11145  Biso   1.000  N 
  N3       1.0000 0.55470  0.09744  0.88769  Biso   1.000  N 
  N4       1.0000 0.95191  0.33527  0.92978  Biso   1.000  N 
  N5       1.0000 0.95191  0.66405  0.42967  Biso   1.000  N 
  N6       1.0000 0.94527  0.40239  0.11223  Biso   1.000  N 
  N7       1.0000 0.04811  0.33539  0.57120  Biso   1.000  N 
  N8       1.0000 0.45189  0.83580  0.92900  Biso   1.000  N 
  N9       1.0000 0.55475  0.90308  0.38782  Biso   1.000  N 
  N10      1.0000 0.45191  0.16455  0.42886  Biso   1.000  N 
  N11      1.0000 0.05470  0.59701  0.88863  Biso   1.000  N 
  N12      1.0000 0.04809  0.66407  0.07111  Biso   1.000  N 
  N13      1.0000 0.05470  0.40242  0.38864  Biso   1.000  N 
  N14      1.0000 0.54806  0.16467  0.07009  Biso   1.000  N 
  N15      1.0000 0.94526  0.59691  0.61216  Biso   1.000  N 
  N16      1.0000 0.54811  0.83579  0.57025  Biso   1.000  N 
