data_image0
_cell_length_a       22.7897
_cell_length_b       13.823
_cell_length_c       6.51183
_cell_angle_alpha    89.9994
_cell_angle_beta     98.1427
_cell_angle_gamma    90

_symmetry_space_group_name_H-M    "P 1"
_symmetry_int_tables_number       1

loop_
  _symmetry_equiv_pos_as_xyz
  'x, y, z'

loop_
  _atom_site_label
  _atom_site_occupancy
  _atom_site_fract_x
  _atom_site_fract_y
  _atom_site_fract_z
  _atom_site_thermal_displace_type
  _atom_site_B_iso_or_equiv
  _atom_site_type_symbol
  C1       1.0000 0.38763  0.91751  0.14656  Biso   1.000  C 
  C2       1.0000 0.77475  0.69886  0.67460  Biso   1.000  C 
  C3       1.0000 0.09678  0.33953  0.63786  Biso   1.000  C 
  C4       1.0000 0.11237  0.41751  0.35344  Biso   1.000  C 
  C5       1.0000 0.59678  0.16047  0.13786  Biso   1.000  C 
  C6       1.0000 0.90322  0.33953  0.86214  Biso   1.000  C 
  C7       1.0000 0.80550  0.29789  0.00172  Biso   1.000  C 
  C8       1.0000 0.86200  0.34790  0.00334  Biso   1.000  C 
  C9       1.0000 0.88763  0.41751  0.14656  Biso   1.000  C 
  C10      1.0000 0.27475  0.80113  0.17460  Biso   1.000  C 
  C11      1.0000 0.22068  0.75448  0.17299  Biso   1.000  C 
  C12      1.0000 0.30550  0.79789  0.00171  Biso   1.000  C 
  C13      1.0000 0.61237  0.91751  0.35345  Biso   1.000  C 
  C14      1.0000 0.72068  0.25448  0.17300  Biso   1.000  C 
  C15      1.0000 0.59678  0.83953  0.63786  Biso   1.000  C 
  C16      1.0000 0.69450  0.79789  0.49829  Biso   1.000  C 
  C17      1.0000 0.77932  0.75448  0.32701  Biso   1.000  C 
  C18      1.0000 0.72525  0.80114  0.32540  Biso   1.000  C 
  C19      1.0000 0.36200  0.84789  0.00334  Biso   1.000  C 
  C20      1.0000 0.40322  0.83953  0.86215  Biso   1.000  C 
  C21      1.0000 0.63801  0.84790  0.49666  Biso   1.000  C 
  C22      1.0000 0.77475  0.30114  0.17461  Biso   1.000  C 
  C23      1.0000 0.72068  0.74552  0.67300  Biso   1.000  C 
  C24      1.0000 0.80550  0.70211  0.50171  Biso   1.000  C 
  C25      1.0000 0.86200  0.65210  0.50333  Biso   1.000  C 
  C26      1.0000 0.90322  0.66047  0.36214  Biso   1.000  C 
  C27      1.0000 0.13800  0.34790  0.49666  Biso   1.000  C 
  C28      1.0000 0.19450  0.29789  0.49828  Biso   1.000  C 
  C29      1.0000 0.27932  0.25448  0.32700  Biso   1.000  C 
  C30      1.0000 0.22525  0.30113  0.32539  Biso   1.000  C 
  C31      1.0000 0.61237  0.08249  0.85345  Biso   1.000  C 
  C32      1.0000 0.63801  0.15210  0.99667  Biso   1.000  C 
  C33      1.0000 0.69450  0.20211  0.99829  Biso   1.000  C 
  C34      1.0000 0.77933  0.24552  0.82701  Biso   1.000  C 
  C35      1.0000 0.72525  0.19886  0.82540  Biso   1.000  C 
  C36      1.0000 0.11237  0.58249  0.85344  Biso   1.000  C 
  C37      1.0000 0.09678  0.66047  0.13785  Biso   1.000  C 
  C38      1.0000 0.19450  0.70211  0.99828  Biso   1.000  C 
  C39      1.0000 0.27933  0.74552  0.82701  Biso   1.000  C 
  C40      1.0000 0.22525  0.69886  0.82539  Biso   1.000  C 
  C41      1.0000 0.38763  0.08249  0.64656  Biso   1.000  C 
  C42      1.0000 0.40322  0.16047  0.36214  Biso   1.000  C 
  C43      1.0000 0.36199  0.15210  0.50334  Biso   1.000  C 
  C44      1.0000 0.30550  0.20211  0.50171  Biso   1.000  C 
  C45      1.0000 0.22068  0.24552  0.67299  Biso   1.000  C 
  C46      1.0000 0.27475  0.19886  0.67460  Biso   1.000  C 
  C47      1.0000 0.88763  0.58249  0.64655  Biso   1.000  C 
  C48      1.0000 0.13800  0.65210  0.99666  Biso   1.000  C 
  Co1      1.0000 0.00000  0.46991  0.75000  Biso   1.000  Co
  Co2      1.0000 0.50000  0.96990  0.75000  Biso   1.000  Co
  Co3      1.0000 0.50000  0.03010  0.25001  Biso   1.000  Co
  Co4      1.0000 1.00000  0.53010  0.25000  Biso   1.000  Co
  H1       1.0000 0.70628  0.15958  0.68636  Biso   1.000  H 
  H2       1.0000 0.09800  0.70532  0.27530  Biso   1.000  H 
  H3       1.0000 0.12838  0.55264  0.71741  Biso   1.000  H 
  H4       1.0000 0.87162  0.44736  0.28259  Biso   1.000  H 
  H5       1.0000 0.59800  0.20532  0.27532  Biso   1.000  H 
  H6       1.0000 0.62838  0.05264  0.71741  Biso   1.000  H 
  H7       1.0000 0.80133  0.24203  0.68891  Biso   1.000  H 
  H8       1.0000 0.30133  0.25796  0.18889  Biso   1.000  H 
  H9       1.0000 0.79372  0.34042  0.31365  Biso   1.000  H 
  H10      1.0000 0.20628  0.65958  0.68635  Biso   1.000  H 
  H11      1.0000 0.30133  0.74203  0.68890  Biso   1.000  H 
  H12      1.0000 0.40200  0.79468  0.72469  Biso   1.000  H 
  H13      1.0000 0.09800  0.29469  0.77531  Biso   1.000  H 
  H14      1.0000 0.29372  0.84042  0.31364  Biso   1.000  H 
  H15      1.0000 0.62837  0.94736  0.21742  Biso   1.000  H 
  H16      1.0000 0.20628  0.34042  0.18635  Biso   1.000  H 
  H17      1.0000 0.79372  0.65958  0.81364  Biso   1.000  H 
  H18      1.0000 0.59800  0.79468  0.77532  Biso   1.000  H 
  H19      1.0000 0.19867  0.75797  0.31109  Biso   1.000  H 
  H20      1.0000 0.69867  0.25797  0.31110  Biso   1.000  H 
  H21      1.0000 0.37162  0.94735  0.28259  Biso   1.000  H 
  H22      1.0000 0.37162  0.05264  0.78259  Biso   1.000  H 
  H23      1.0000 0.40199  0.20532  0.22468  Biso   1.000  H 
  H24      1.0000 0.19867  0.24204  0.81110  Biso   1.000  H 
  H25      1.0000 0.90200  0.29468  0.72469  Biso   1.000  H 
  H26      1.0000 0.12837  0.44736  0.21741  Biso   1.000  H 
  H27      1.0000 0.70628  0.84042  0.18636  Biso   1.000  H 
  H28      1.0000 0.80133  0.75797  0.18890  Biso   1.000  H 
  H29      1.0000 0.87162  0.55264  0.78259  Biso   1.000  H 
  H30      1.0000 0.90199  0.70532  0.22468  Biso   1.000  H 
  H31      1.0000 0.69867  0.74203  0.81110  Biso   1.000  H 
  H32      1.0000 0.29372  0.15958  0.81364  Biso   1.000  H 
  N1       1.0000 0.06025  0.44767  0.40660  Biso   1.000  N 
  N2       1.0000 0.05039  0.60072  0.08174  Biso   1.000  N 
  N3       1.0000 0.06025  0.55234  0.90660  Biso   1.000  N 
  N4       1.0000 0.44962  0.89928  0.91826  Biso   1.000  N 
  N5       1.0000 0.43975  0.05233  0.59340  Biso   1.000  N 
  N6       1.0000 0.44961  0.10072  0.41825  Biso   1.000  N 
  N7       1.0000 0.56025  0.94767  0.40661  Biso   1.000  N 
  N8       1.0000 0.55039  0.10072  0.08175  Biso   1.000  N 
  N9       1.0000 0.05039  0.39928  0.58175  Biso   1.000  N 
  N10      1.0000 0.93975  0.44767  0.09339  Biso   1.000  N 
  N11      1.0000 0.93975  0.55234  0.59339  Biso   1.000  N 
  N12      1.0000 0.94961  0.60072  0.41825  Biso   1.000  N 
  N13      1.0000 0.94961  0.39928  0.91825  Biso   1.000  N 
  N14      1.0000 0.56025  0.05233  0.90661  Biso   1.000  N 
  N15      1.0000 0.43975  0.94767  0.09340  Biso   1.000  N 
  N16      1.0000 0.55038  0.89928  0.58176  Biso   1.000  N 
