data_image0
_cell_length_a       24.573
_cell_length_b       9.09132
_cell_length_c       6.84679
_cell_angle_alpha    89.9703
_cell_angle_beta     91.2
_cell_angle_gamma    90.0059

_symmetry_space_group_name_H-M    "P 1"
_symmetry_int_tables_number       1

loop_
  _symmetry_equiv_pos_as_xyz
  'x, y, z'

loop_
  _atom_site_label
  _atom_site_occupancy
  _atom_site_fract_x
  _atom_site_fract_y
  _atom_site_fract_z
  _atom_site_thermal_displace_type
  _atom_site_B_iso_or_equiv
  _atom_site_type_symbol
  C1       1.0000 0.39338  0.89355  0.16293  Biso   1.000  C 
  C2       1.0000 0.09575  0.29061  0.62681  Biso   1.000  C 
  C3       1.0000 0.10661  0.39304  0.33733  Biso   1.000  C 
  C4       1.0000 0.59570  0.20963  0.12569  Biso   1.000  C 
  C5       1.0000 0.90431  0.29037  0.87397  Biso   1.000  C 
  C6       1.0000 0.80708  0.27702  0.01152  Biso   1.000  C 
  C7       1.0000 0.86515  0.31198  0.01835  Biso   1.000  C 
  C8       1.0000 0.89336  0.39299  0.16318  Biso   1.000  C 
  C9       1.0000 0.27042  0.85658  0.12761  Biso   1.000  C 
  C10      1.0000 0.21471  0.82997  0.11650  Biso   1.000  C 
  C11      1.0000 0.30705  0.77738  0.01172  Biso   1.000  C 
  C12      1.0000 0.71474  0.32992  0.11588  Biso   1.000  C 
  C13      1.0000 0.59575  0.79095  0.62598  Biso   1.000  C 
  C14      1.0000 0.69295  0.77742  0.48821  Biso   1.000  C 
  C15      1.0000 0.78533  0.82991  0.38365  Biso   1.000  C 
  C16      1.0000 0.72963  0.85660  0.37236  Biso   1.000  C 
  C17      1.0000 0.36512  0.81251  0.01824  Biso   1.000  C 
  C18      1.0000 0.40423  0.79092  0.87368  Biso   1.000  C 
  C19      1.0000 0.63490  0.81260  0.48152  Biso   1.000  C 
  C20      1.0000 0.77046  0.35631  0.12728  Biso   1.000  C 
  C21      1.0000 0.71472  0.67022  0.61603  Biso   1.000  C 
  C22      1.0000 0.60667  0.89371  0.33672  Biso   1.000  C 
  C23      1.0000 0.77042  0.64354  0.62734  Biso   1.000  C 
  C24      1.0000 0.80709  0.72272  0.51150  Biso   1.000  C 
  C25      1.0000 0.86514  0.68748  0.51822  Biso   1.000  C 
  C26      1.0000 0.90430  0.70898  0.37377  Biso   1.000  C 
  C27      1.0000 0.19293  0.27707  0.48878  Biso   1.000  C 
  C28      1.0000 0.28523  0.32997  0.38388  Biso   1.000  C 
  C29      1.0000 0.22952  0.35646  0.37285  Biso   1.000  C 
  C30      1.0000 0.60662  0.10680  0.83661  Biso   1.000  C 
  C31      1.0000 0.63485  0.18790  0.98131  Biso   1.000  C 
  C32      1.0000 0.69292  0.22291  0.98802  Biso   1.000  C 
  C33      1.0000 0.78526  0.17005  0.88363  Biso   1.000  C 
  C34      1.0000 0.72954  0.14365  0.87221  Biso   1.000  C 
  C35      1.0000 0.10663  0.60661  0.83734  Biso   1.000  C 
  C36      1.0000 0.09569  0.70911  0.12662  Biso   1.000  C 
  C37      1.0000 0.19290  0.72284  0.98880  Biso   1.000  C 
  C38      1.0000 0.22953  0.64365  0.87294  Biso   1.000  C 
  C39      1.0000 0.39341  0.10673  0.66275  Biso   1.000  C 
  C40      1.0000 0.40425  0.20941  0.37340  Biso   1.000  C 
  C41      1.0000 0.36514  0.18777  0.51800  Biso   1.000  C 
  C42      1.0000 0.30707  0.22279  0.51152  Biso   1.000  C 
  C43      1.0000 0.21477  0.16989  0.61642  Biso   1.000  C 
  C44      1.0000 0.27049  0.14339  0.62745  Biso   1.000  C 
  C45      1.0000 0.89335  0.60646  0.66317  Biso   1.000  C 
  C46      1.0000 0.13484  0.68764  0.98216  Biso   1.000  C 
  C47      1.0000 0.13487  0.31213  0.48222  Biso   1.000  C 
  C48      1.0000 0.28523  0.67024  0.88407  Biso   1.000  C 
  Co1      1.0000 0.00001  0.46449  0.75045  Biso   1.000  Co
  Co2      1.0000 0.50000  0.96475  0.74963  Biso   1.000  Co
  Co3      1.0000 0.50001  0.03561  0.24952  Biso   1.000  Co
  Co4      1.0000 0.99999  0.53493  0.25030  Biso   1.000  Co
  H1       1.0000 0.31225  0.39501  0.29338  Biso   1.000  H 
  H2       1.0000 0.28561  0.94281  0.22528  Biso   1.000  H 
  H3       1.0000 0.09989  0.23802  0.76883  Biso   1.000  H 
  H4       1.0000 0.40008  0.73826  0.73179  Biso   1.000  H 
  H5       1.0000 0.31228  0.60534  0.79360  Biso   1.000  H 
  H6       1.0000 0.21434  0.55741  0.77529  Biso   1.000  H 
  H7       1.0000 0.78565  0.44243  0.22511  Biso   1.000  H 
  H8       1.0000 0.71434  0.05753  0.77438  Biso   1.000  H 
  H9       1.0000 0.62058  0.06763  0.69659  Biso   1.000  H 
  H10      1.0000 0.59981  0.26242  0.26750  Biso   1.000  H 
  H11      1.0000 0.87939  0.43214  0.30319  Biso   1.000  H 
  H12      1.0000 0.12059  0.56757  0.69726  Biso   1.000  H 
  H13      1.0000 0.09980  0.76173  0.26856  Biso   1.000  H 
  H14      1.0000 0.21430  0.44274  0.27522  Biso   1.000  H 
  H15      1.0000 0.62062  0.93289  0.19662  Biso   1.000  H 
  H16      1.0000 0.81230  0.10510  0.79318  Biso   1.000  H 
  H17      1.0000 0.78556  0.55728  0.72514  Biso   1.000  H 
  H18      1.0000 0.18775  0.10487  0.70691  Biso   1.000  H 
  H19      1.0000 0.68765  0.60530  0.70649  Biso   1.000  H 
  H20      1.0000 0.90019  0.76162  0.23180  Biso   1.000  H 
  H21      1.0000 0.87939  0.56741  0.80333  Biso   1.000  H 
  H22      1.0000 0.81240  0.89483  0.29320  Biso   1.000  H 
  H23      1.0000 0.71448  0.94287  0.27457  Biso   1.000  H 
  H24      1.0000 0.12054  0.43202  0.19711  Biso   1.000  H 
  H25      1.0000 0.28571  0.05711  0.72507  Biso   1.000  H 
  H26      1.0000 0.40010  0.26210  0.23145  Biso   1.000  H 
  H27      1.0000 0.37949  0.06765  0.80292  Biso   1.000  H 
  H28      1.0000 0.37947  0.93262  0.30305  Biso   1.000  H 
  H29      1.0000 0.68769  0.39487  0.20627  Biso   1.000  H 
  H30      1.0000 0.18768  0.89486  0.20701  Biso   1.000  H 
  H31      1.0000 0.59987  0.73819  0.76788  Biso   1.000  H 
  H32      1.0000 0.90021  0.23771  0.73208  Biso   1.000  H 
  N1       1.0000 0.54842  0.14279  0.07295  Biso   1.000  N 
  N2       1.0000 0.05532  0.42043  0.39404  Biso   1.000  N 
  N3       1.0000 0.04843  0.64222  0.07379  Biso   1.000  N 
  N4       1.0000 0.05534  0.57914  0.89398  Biso   1.000  N 
  N5       1.0000 0.45152  0.85774  0.92633  Biso   1.000  N 
  N6       1.0000 0.45155  0.14261  0.42611  Biso   1.000  N 
  N7       1.0000 0.55538  0.92105  0.39338  Biso   1.000  N 
  N8       1.0000 0.94464  0.57901  0.60657  Biso   1.000  N 
  N9       1.0000 0.04846  0.35737  0.57399  Biso   1.000  N 
  N10      1.0000 0.94467  0.42033  0.10661  Biso   1.000  N 
  N11      1.0000 0.95156  0.64212  0.42669  Biso   1.000  N 
  N12      1.0000 0.95158  0.35717  0.92686  Biso   1.000  N 
  N13      1.0000 0.55532  0.07949  0.89327  Biso   1.000  N 
  N14      1.0000 0.44467  0.92092  0.10611  Biso   1.000  N 
  N15      1.0000 0.44469  0.07940  0.60596  Biso   1.000  N 
  N16      1.0000 0.54848  0.85779  0.57318  Biso   1.000  N 
