data_image0
_cell_length_a       24.7695
_cell_length_b       6.27518
_cell_length_c       6.90232
_cell_angle_alpha    89.9983
_cell_angle_beta     85.4516
_cell_angle_gamma    89.9923

_symmetry_space_group_name_H-M    "P 1"
_symmetry_int_tables_number       1

loop_
  _symmetry_equiv_pos_as_xyz
  'x, y, z'

loop_
  _atom_site_label
  _atom_site_occupancy
  _atom_site_fract_x
  _atom_site_fract_y
  _atom_site_fract_z
  _atom_site_thermal_displace_type
  _atom_site_B_iso_or_equiv
  _atom_site_type_symbol
  C1       1.0000 0.39273  0.85106  0.18313  Biso   1.000  C 
  C2       1.0000 0.22923  0.35752  0.34614  Biso   1.000  C 
  C3       1.0000 0.60757  0.14888  0.81449  Biso   1.000  C 
  C4       1.0000 0.63508  0.24739  0.96118  Biso   1.000  C 
  C5       1.0000 0.69356  0.25697  0.97546  Biso   1.000  C 
  C6       1.0000 0.78451  0.13587  0.87035  Biso   1.000  C 
  C7       1.0000 0.72946  0.14260  0.84569  Biso   1.000  C 
  C8       1.0000 0.10727  0.64893  0.81682  Biso   1.000  C 
  C9       1.0000 0.09385  0.78706  0.11160  Biso   1.000  C 
  C10      1.0000 0.19350  0.75660  0.97649  Biso   1.000  C 
  C11      1.0000 0.22927  0.64237  0.84612  Biso   1.000  C 
  C12      1.0000 0.40614  0.28762  0.38834  Biso   1.000  C 
  C13      1.0000 0.36502  0.24720  0.53663  Biso   1.000  C 
  C14      1.0000 0.30650  0.25681  0.52346  Biso   1.000  C 
  C15      1.0000 0.21565  0.13588  0.63027  Biso   1.000  C 
  C16      1.0000 0.27077  0.14248  0.65385  Biso   1.000  C 
  C17      1.0000 0.89244  0.64854  0.68551  Biso   1.000  C 
  C18      1.0000 0.13498  0.74678  0.96331  Biso   1.000  C 
  C19      1.0000 0.13499  0.25276  0.46334  Biso   1.000  C 
  C20      1.0000 0.28439  0.63599  0.86972  Biso   1.000  C 
  C21      1.0000 0.19351  0.24318  0.47653  Biso   1.000  C 
  C22      1.0000 0.39274  0.14935  0.68310  Biso   1.000  C 
  C23      1.0000 0.28435  0.36412  0.36972  Biso   1.000  C 
  C24      1.0000 0.90621  0.78801  0.39132  Biso   1.000  C 
  C25      1.0000 0.86492  0.74706  0.53884  Biso   1.000  C 
  C26      1.0000 0.80644  0.75678  0.52460  Biso   1.000  C 
  C27      1.0000 0.10726  0.35055  0.31685  Biso   1.000  C 
  C28      1.0000 0.59377  0.28841  0.10864  Biso   1.000  C 
  C29      1.0000 0.90620  0.21164  0.89136  Biso   1.000  C 
  C30      1.0000 0.80642  0.24312  0.02461  Biso   1.000  C 
  C31      1.0000 0.86490  0.25268  0.03885  Biso   1.000  C 
  C32      1.0000 0.89243  0.35115  0.18552  Biso   1.000  C 
  C33      1.0000 0.27073  0.85769  0.15382  Biso   1.000  C 
  C34      1.0000 0.21561  0.86406  0.13021  Biso   1.000  C 
  C35      1.0000 0.30650  0.74344  0.02346  Biso   1.000  C 
  C36      1.0000 0.71547  0.36422  0.12972  Biso   1.000  C 
  C37      1.0000 0.69357  0.74327  0.47549  Biso   1.000  C 
  C38      1.0000 0.72948  0.85754  0.34570  Biso   1.000  C 
  C39      1.0000 0.36501  0.75323  0.03665  Biso   1.000  C 
  C40      1.0000 0.40615  0.71289  0.88837  Biso   1.000  C 
  C41      1.0000 0.63510  0.75295  0.46121  Biso   1.000  C 
  C42      1.0000 0.77052  0.35748  0.15439  Biso   1.000  C 
  C43      1.0000 0.71547  0.63595  0.62975  Biso   1.000  C 
  C44      1.0000 0.60758  0.85150  0.31452  Biso   1.000  C 
  C45      1.0000 0.77053  0.64251  0.65440  Biso   1.000  C 
  C46      1.0000 0.59379  0.71192  0.60866  Biso   1.000  C 
  C47      1.0000 0.09387  0.21235  0.61165  Biso   1.000  C 
  C48      1.0000 0.78454  0.86410  0.37036  Biso   1.000  C 
  Co1      1.0000 0.99989  0.53996  0.25165  Biso   1.000  Co
  Co2      1.0000 0.50012  0.04039  0.24834  Biso   1.000  Co
  Co3      1.0000 0.50012  0.95994  0.74830  Biso   1.000  Co
  Co4      1.0000 0.99989  0.45953  0.75162  Biso   1.000  Co
  H1       1.0000 0.28608  0.05496  0.77415  Biso   1.000  H 
  H2       1.0000 0.18929  0.04597  0.73393  Biso   1.000  H 
  H3       1.0000 0.68897  0.54613  0.73300  Biso   1.000  H 
  H4       1.0000 0.90366  0.85753  0.24819  Biso   1.000  H 
  H5       1.0000 0.87681  0.59370  0.82806  Biso   1.000  H 
  H6       1.0000 0.81105  0.95393  0.26710  Biso   1.000  H 
  H7       1.0000 0.71436  0.94495  0.22498  Biso   1.000  H 
  H8       1.0000 0.90365  0.14211  0.74821  Biso   1.000  H 
  H9       1.0000 0.37728  0.09497  0.82596  Biso   1.000  H 
  H10      1.0000 0.37726  0.90535  0.32601  Biso   1.000  H 
  H11      1.0000 0.68896  0.45415  0.23294  Biso   1.000  H 
  H12      1.0000 0.18921  0.95392  0.23383  Biso   1.000  H 
  H13      1.0000 0.59633  0.64235  0.75179  Biso   1.000  H 
  H14      1.0000 0.12272  0.40488  0.17398  Biso   1.000  H 
  H15      1.0000 0.78566  0.55508  0.77510  Biso   1.000  H 
  H16      1.0000 0.40339  0.35649  0.24505  Biso   1.000  H 
  H17      1.0000 0.62323  0.90641  0.17202  Biso   1.000  H 
  H18      1.0000 0.78565  0.44485  0.27508  Biso   1.000  H 
  H19      1.0000 0.21393  0.44505  0.22585  Biso   1.000  H 
  H20      1.0000 0.09659  0.85591  0.25489  Biso   1.000  H 
  H21      1.0000 0.12274  0.59466  0.67394  Biso   1.000  H 
  H22      1.0000 0.87680  0.40597  0.32807  Biso   1.000  H 
  H23      1.0000 0.59630  0.35797  0.25179  Biso   1.000  H 
  H24      1.0000 0.62321  0.09406  0.67197  Biso   1.000  H 
  H25      1.0000 0.71433  0.05521  0.72500  Biso   1.000  H 
  H26      1.0000 0.21401  0.55478  0.72578  Biso   1.000  H 
  H27      1.0000 0.31079  0.54615  0.76609  Biso   1.000  H 
  H28      1.0000 0.40341  0.64401  0.74507  Biso   1.000  H 
  H29      1.0000 0.09661  0.14353  0.75497  Biso   1.000  H 
  H30      1.0000 0.28599  0.94530  0.27415  Biso   1.000  H 
  H31      1.0000 0.81102  0.04594  0.76714  Biso   1.000  H 
  H32      1.0000 0.31071  0.45402  0.26607  Biso   1.000  H 
  N1       1.0000 0.45385  0.79243  0.93852  Biso   1.000  N 
  N2       1.0000 0.44543  0.12329  0.62194  Biso   1.000  N 
  N3       1.0000 0.44542  0.87718  0.12200  Biso   1.000  N 
  N4       1.0000 0.55482  0.12302  0.87486  Biso   1.000  N 
  N5       1.0000 0.95382  0.29144  0.94198  Biso   1.000  N 
  N6       1.0000 0.94517  0.37696  0.12510  Biso   1.000  N 
  N7       1.0000 0.04616  0.29187  0.56149  Biso   1.000  N 
  N8       1.0000 0.05459  0.62275  0.87796  Biso   1.000  N 
  N9       1.0000 0.55483  0.87733  0.37490  Biso   1.000  N 
  N10      1.0000 0.45385  0.20806  0.43847  Biso   1.000  N 
  N11      1.0000 0.04615  0.70749  0.06144  Biso   1.000  N 
  N12      1.0000 0.05457  0.37660  0.37800  Biso   1.000  N 
  N13      1.0000 0.54616  0.20856  0.05797  Biso   1.000  N 
  N14      1.0000 0.94519  0.62265  0.62508  Biso   1.000  N 
  N15      1.0000 0.95383  0.70813  0.44195  Biso   1.000  N 
  N16      1.0000 0.54617  0.79177  0.55801  Biso   1.000  N 
