data_image0
_cell_length_a       22.0312
_cell_length_b       15.092
_cell_length_c       6.52019
_cell_angle_alpha    90.001
_cell_angle_beta     99.6528
_cell_angle_gamma    89.9997

_symmetry_space_group_name_H-M    "P 1"
_symmetry_int_tables_number       1

loop_
  _symmetry_equiv_pos_as_xyz
  'x, y, z'

loop_
  _atom_site_label
  _atom_site_occupancy
  _atom_site_fract_x
  _atom_site_fract_y
  _atom_site_fract_z
  _atom_site_thermal_displace_type
  _atom_site_B_iso_or_equiv
  _atom_site_type_symbol
  C1       1.0000 0.38567  0.91797  0.14297  Biso   1.000  C 
  C2       1.0000 0.77413  0.69976  0.67300  Biso   1.000  C 
  C3       1.0000 0.09703  0.34792  0.64004  Biso   1.000  C 
  C4       1.0000 0.11433  0.41797  0.35701  Biso   1.000  C 
  C5       1.0000 0.59704  0.15206  0.14003  Biso   1.000  C 
  C6       1.0000 0.90296  0.34794  0.85997  Biso   1.000  C 
  C7       1.0000 0.80498  0.30003  0.00049  Biso   1.000  C 
  C8       1.0000 0.86103  0.35176  0.00096  Biso   1.000  C 
  C9       1.0000 0.88567  0.41799  0.14301  Biso   1.000  C 
  C10      1.0000 0.27412  0.80026  0.17296  Biso   1.000  C 
  C11      1.0000 0.22055  0.75158  0.17252  Biso   1.000  C 
  C12      1.0000 0.30499  0.80001  0.00047  Biso   1.000  C 
  C13      1.0000 0.61433  0.91798  0.35700  Biso   1.000  C 
  C14      1.0000 0.72056  0.25158  0.17254  Biso   1.000  C 
  C15      1.0000 0.59703  0.84793  0.64003  Biso   1.000  C 
  C16      1.0000 0.69501  0.80002  0.49952  Biso   1.000  C 
  C17      1.0000 0.77945  0.75158  0.32748  Biso   1.000  C 
  C18      1.0000 0.72588  0.80026  0.32703  Biso   1.000  C 
  C19      1.0000 0.36103  0.85174  0.00094  Biso   1.000  C 
  C20      1.0000 0.40297  0.84792  0.85994  Biso   1.000  C 
  C21      1.0000 0.63896  0.85175  0.49903  Biso   1.000  C 
  C22      1.0000 0.77412  0.30027  0.17299  Biso   1.000  C 
  C23      1.0000 0.72056  0.74844  0.67254  Biso   1.000  C 
  C24      1.0000 0.80500  0.70000  0.50052  Biso   1.000  C 
  C25      1.0000 0.86104  0.64827  0.50098  Biso   1.000  C 
  C26      1.0000 0.90298  0.65208  0.35999  Biso   1.000  C 
  C27      1.0000 0.13896  0.35174  0.49904  Biso   1.000  C 
  C28      1.0000 0.19501  0.30000  0.49952  Biso   1.000  C 
  C29      1.0000 0.27945  0.25156  0.32748  Biso   1.000  C 
  C30      1.0000 0.22588  0.30025  0.32704  Biso   1.000  C 
  C31      1.0000 0.61433  0.08202  0.85700  Biso   1.000  C 
  C32      1.0000 0.63897  0.14825  0.99903  Biso   1.000  C 
  C33      1.0000 0.69501  0.19999  0.99951  Biso   1.000  C 
  C34      1.0000 0.77944  0.24845  0.82747  Biso   1.000  C 
  C35      1.0000 0.72588  0.19975  0.82702  Biso   1.000  C 
  C36      1.0000 0.11432  0.58202  0.85700  Biso   1.000  C 
  C37      1.0000 0.09703  0.65207  0.14003  Biso   1.000  C 
  C38      1.0000 0.19500  0.69999  0.99948  Biso   1.000  C 
  C39      1.0000 0.27944  0.74843  0.82745  Biso   1.000  C 
  C40      1.0000 0.22587  0.69975  0.82700  Biso   1.000  C 
  C41      1.0000 0.38568  0.08201  0.64300  Biso   1.000  C 
  C42      1.0000 0.40296  0.15205  0.35996  Biso   1.000  C 
  C43      1.0000 0.36104  0.14824  0.50097  Biso   1.000  C 
  C44      1.0000 0.30499  0.19997  0.50050  Biso   1.000  C 
  C45      1.0000 0.22056  0.24842  0.67254  Biso   1.000  C 
  C46      1.0000 0.27412  0.19973  0.67299  Biso   1.000  C 
  C47      1.0000 0.88567  0.58202  0.64299  Biso   1.000  C 
  C48      1.0000 0.13896  0.64826  0.99903  Biso   1.000  C 
  Co1      1.0000 1.00000  0.47275  0.74999  Biso   1.000  Co
  Co2      1.0000 0.50001  0.97275  0.75000  Biso   1.000  Co
  Co3      1.0000 0.50000  0.02724  0.24999  Biso   1.000  Co
  Co4      1.0000 0.00000  0.52724  0.25001  Biso   1.000  Co
  H1       1.0000 0.70737  0.16115  0.68915  Biso   1.000  H 
  H2       1.0000 0.09734  0.69348  0.27642  Biso   1.000  H 
  H3       1.0000 0.13101  0.55619  0.72125  Biso   1.000  H 
  H4       1.0000 0.86899  0.44382  0.27877  Biso   1.000  H 
  H5       1.0000 0.59735  0.19347  0.27646  Biso   1.000  H 
  H6       1.0000 0.63102  0.05619  0.72127  Biso   1.000  H 
  H7       1.0000 0.80153  0.24695  0.68971  Biso   1.000  H 
  H8       1.0000 0.30154  0.25306  0.18973  Biso   1.000  H 
  H9       1.0000 0.79263  0.33887  0.31086  Biso   1.000  H 
  H10      1.0000 0.20736  0.66114  0.68913  Biso   1.000  H 
  H11      1.0000 0.30153  0.74693  0.68971  Biso   1.000  H 
  H12      1.0000 0.40265  0.80652  0.72356  Biso   1.000  H 
  H13      1.0000 0.09735  0.30652  0.77642  Biso   1.000  H 
  H14      1.0000 0.29263  0.83886  0.31085  Biso   1.000  H 
  H15      1.0000 0.63101  0.94381  0.22123  Biso   1.000  H 
  H16      1.0000 0.20737  0.33885  0.18917  Biso   1.000  H 
  H17      1.0000 0.79264  0.66115  0.81086  Biso   1.000  H 
  H18      1.0000 0.59735  0.80654  0.77643  Biso   1.000  H 
  H19      1.0000 0.19846  0.75308  0.31026  Biso   1.000  H 
  H20      1.0000 0.69846  0.25307  0.31028  Biso   1.000  H 
  H21      1.0000 0.36898  0.94381  0.27873  Biso   1.000  H 
  H22      1.0000 0.36900  0.05618  0.77876  Biso   1.000  H 
  H23      1.0000 0.40264  0.19345  0.22354  Biso   1.000  H 
  H24      1.0000 0.19846  0.24692  0.81028  Biso   1.000  H 
  H25      1.0000 0.90264  0.30654  0.72357  Biso   1.000  H 
  H26      1.0000 0.13102  0.44381  0.22126  Biso   1.000  H 
  H27      1.0000 0.70737  0.83886  0.18915  Biso   1.000  H 
  H28      1.0000 0.80154  0.75308  0.18973  Biso   1.000  H 
  H29      1.0000 0.86898  0.55618  0.77873  Biso   1.000  H 
  H30      1.0000 0.90267  0.69349  0.22361  Biso   1.000  H 
  H31      1.0000 0.69847  0.74693  0.81027  Biso   1.000  H 
  H32      1.0000 0.29263  0.16113  0.81087  Biso   1.000  H 
  N1       1.0000 0.06208  0.45044  0.41051  Biso   1.000  N 
  N2       1.0000 0.05115  0.59305  0.08475  Biso   1.000  N 
  N3       1.0000 0.06207  0.54955  0.91051  Biso   1.000  N 
  N4       1.0000 0.44885  0.90694  0.91523  Biso   1.000  N 
  N5       1.0000 0.43793  0.04954  0.58949  Biso   1.000  N 
  N6       1.0000 0.44884  0.09304  0.41523  Biso   1.000  N 
  N7       1.0000 0.56207  0.95045  0.41049  Biso   1.000  N 
  N8       1.0000 0.55116  0.09305  0.08475  Biso   1.000  N 
  N9       1.0000 0.05115  0.40694  0.58475  Biso   1.000  N 
  N10      1.0000 0.93792  0.45046  0.08950  Biso   1.000  N 
  N11      1.0000 0.93793  0.54955  0.58949  Biso   1.000  N 
  N12      1.0000 0.94886  0.59306  0.41527  Biso   1.000  N 
  N13      1.0000 0.94884  0.40695  0.91525  Biso   1.000  N 
  N14      1.0000 0.56208  0.04955  0.91050  Biso   1.000  N 
  N15      1.0000 0.43792  0.95044  0.08948  Biso   1.000  N 
  N16      1.0000 0.55115  0.90695  0.58475  Biso   1.000  N 
