data_image0
_cell_length_a       21.1355
_cell_length_b       16.3707
_cell_length_c       6.58635
_cell_angle_alpha    89.9984
_cell_angle_beta     100.48
_cell_angle_gamma    89.9994

_symmetry_space_group_name_H-M    "P 1"
_symmetry_int_tables_number       1

loop_
  _symmetry_equiv_pos_as_xyz
  'x, y, z'

loop_
  _atom_site_label
  _atom_site_occupancy
  _atom_site_fract_x
  _atom_site_fract_y
  _atom_site_fract_z
  _atom_site_thermal_displace_type
  _atom_site_B_iso_or_equiv
  _atom_site_type_symbol
  C1       1.0000 0.38360  0.91670  0.14018  Biso   1.000  C 
  C2       1.0000 0.77314  0.70160  0.67037  Biso   1.000  C 
  C3       1.0000 0.09778  0.35654  0.64420  Biso   1.000  C 
  C4       1.0000 0.11639  0.41670  0.35981  Biso   1.000  C 
  C5       1.0000 0.59778  0.14346  0.14422  Biso   1.000  C 
  C6       1.0000 0.90222  0.35654  0.85579  Biso   1.000  C 
  C7       1.0000 0.80432  0.30178  0.99884  Biso   1.000  C 
  C8       1.0000 0.85981  0.35489  0.99800  Biso   1.000  C 
  C9       1.0000 0.88361  0.41671  0.14017  Biso   1.000  C 
  C10      1.0000 0.27314  0.79841  0.17037  Biso   1.000  C 
  C11      1.0000 0.22027  0.74804  0.17159  Biso   1.000  C 
  C12      1.0000 0.30431  0.80178  0.99884  Biso   1.000  C 
  C13      1.0000 0.61639  0.91670  0.35982  Biso   1.000  C 
  C14      1.0000 0.72028  0.24804  0.17161  Biso   1.000  C 
  C15      1.0000 0.59778  0.85654  0.64420  Biso   1.000  C 
  C16      1.0000 0.69568  0.80177  0.50116  Biso   1.000  C 
  C17      1.0000 0.77972  0.74803  0.32839  Biso   1.000  C 
  C18      1.0000 0.72686  0.79840  0.32964  Biso   1.000  C 
  C19      1.0000 0.35980  0.85488  0.99799  Biso   1.000  C 
  C20      1.0000 0.40222  0.85654  0.85578  Biso   1.000  C 
  C21      1.0000 0.64020  0.85488  0.50200  Biso   1.000  C 
  C22      1.0000 0.77314  0.29841  0.17036  Biso   1.000  C 
  C23      1.0000 0.72028  0.75196  0.67161  Biso   1.000  C 
  C24      1.0000 0.80432  0.69823  0.49885  Biso   1.000  C 
  C25      1.0000 0.85980  0.64512  0.49800  Biso   1.000  C 
  C26      1.0000 0.90222  0.64346  0.35579  Biso   1.000  C 
  C27      1.0000 0.14020  0.35488  0.50200  Biso   1.000  C 
  C28      1.0000 0.19569  0.30177  0.50115  Biso   1.000  C 
  C29      1.0000 0.27973  0.24803  0.32839  Biso   1.000  C 
  C30      1.0000 0.22686  0.29840  0.32963  Biso   1.000  C 
  C31      1.0000 0.61639  0.08330  0.85983  Biso   1.000  C 
  C32      1.0000 0.64019  0.14512  0.00201  Biso   1.000  C 
  C33      1.0000 0.69568  0.19823  0.00117  Biso   1.000  C 
  C34      1.0000 0.77972  0.25197  0.82841  Biso   1.000  C 
  C35      1.0000 0.72685  0.20160  0.82963  Biso   1.000  C 
  C36      1.0000 0.11639  0.58329  0.85982  Biso   1.000  C 
  C37      1.0000 0.09778  0.64346  0.14419  Biso   1.000  C 
  C38      1.0000 0.19568  0.69823  0.00114  Biso   1.000  C 
  C39      1.0000 0.27971  0.75197  0.82839  Biso   1.000  C 
  C40      1.0000 0.22685  0.70160  0.82962  Biso   1.000  C 
  C41      1.0000 0.38361  0.08329  0.64018  Biso   1.000  C 
  C42      1.0000 0.40223  0.14346  0.35581  Biso   1.000  C 
  C43      1.0000 0.35981  0.14512  0.49801  Biso   1.000  C 
  C44      1.0000 0.30432  0.19823  0.49885  Biso   1.000  C 
  C45      1.0000 0.22028  0.25196  0.67160  Biso   1.000  C 
  C46      1.0000 0.27315  0.20160  0.67037  Biso   1.000  C 
  C47      1.0000 0.88361  0.58329  0.64017  Biso   1.000  C 
  C48      1.0000 0.14019  0.64512  0.00199  Biso   1.000  C 
  Co1      1.0000 1.00000  0.47691  0.75001  Biso   1.000  Co
  Co2      1.0000 0.50000  0.97693  0.75001  Biso   1.000  Co
  Co3      1.0000 0.50001  0.02307  0.25002  Biso   1.000  Co
  Co4      1.0000 0.00001  0.52306  0.24999  Biso   1.000  Co
  H1       1.0000 0.70915  0.16432  0.69383  Biso   1.000  H 
  H2       1.0000 0.09734  0.68028  0.28109  Biso   1.000  H 
  H3       1.0000 0.13359  0.56232  0.72313  Biso   1.000  H 
  H4       1.0000 0.86641  0.43769  0.27685  Biso   1.000  H 
  H5       1.0000 0.59734  0.18028  0.28111  Biso   1.000  H 
  H6       1.0000 0.63359  0.06233  0.72316  Biso   1.000  H 
  H7       1.0000 0.80199  0.25308  0.69141  Biso   1.000  H 
  H8       1.0000 0.30200  0.24692  0.19139  Biso   1.000  H 
  H9       1.0000 0.79084  0.33568  0.30616  Biso   1.000  H 
  H10      1.0000 0.20915  0.66433  0.69383  Biso   1.000  H 
  H11      1.0000 0.30199  0.75309  0.69139  Biso   1.000  H 
  H12      1.0000 0.40265  0.81972  0.71888  Biso   1.000  H 
  H13      1.0000 0.09735  0.31972  0.78108  Biso   1.000  H 
  H14      1.0000 0.29084  0.83568  0.30616  Biso   1.000  H 
  H15      1.0000 0.63359  0.93768  0.22315  Biso   1.000  H 
  H16      1.0000 0.20916  0.33567  0.19384  Biso   1.000  H 
  H17      1.0000 0.79085  0.66432  0.80617  Biso   1.000  H 
  H18      1.0000 0.59734  0.81972  0.78110  Biso   1.000  H 
  H19      1.0000 0.19800  0.74692  0.30860  Biso   1.000  H 
  H20      1.0000 0.69800  0.24693  0.30862  Biso   1.000  H 
  H21      1.0000 0.36641  0.93769  0.27687  Biso   1.000  H 
  H22      1.0000 0.36641  0.06231  0.77687  Biso   1.000  H 
  H23      1.0000 0.40267  0.18027  0.21891  Biso   1.000  H 
  H24      1.0000 0.19801  0.25308  0.80861  Biso   1.000  H 
  H25      1.0000 0.90265  0.31972  0.71890  Biso   1.000  H 
  H26      1.0000 0.13359  0.43769  0.22314  Biso   1.000  H 
  H27      1.0000 0.70915  0.83567  0.19385  Biso   1.000  H 
  H28      1.0000 0.80199  0.74691  0.19138  Biso   1.000  H 
  H29      1.0000 0.86641  0.56231  0.77686  Biso   1.000  H 
  H30      1.0000 0.90266  0.68028  0.21890  Biso   1.000  H 
  H31      1.0000 0.69801  0.75308  0.80861  Biso   1.000  H 
  H32      1.0000 0.29085  0.16432  0.80616  Biso   1.000  H 
  N1       1.0000 0.06414  0.45182  0.41418  Biso   1.000  N 
  N2       1.0000 0.05242  0.58557  0.08936  Biso   1.000  N 
  N3       1.0000 0.06413  0.54819  0.91417  Biso   1.000  N 
  N4       1.0000 0.44758  0.91442  0.91064  Biso   1.000  N 
  N5       1.0000 0.43587  0.04818  0.58582  Biso   1.000  N 
  N6       1.0000 0.44759  0.08557  0.41063  Biso   1.000  N 
  N7       1.0000 0.56413  0.95181  0.41419  Biso   1.000  N 
  N8       1.0000 0.55241  0.08558  0.08936  Biso   1.000  N 
  N9       1.0000 0.05241  0.41442  0.58935  Biso   1.000  N 
  N10      1.0000 0.93587  0.45182  0.08582  Biso   1.000  N 
  N11      1.0000 0.93587  0.54818  0.58582  Biso   1.000  N 
  N12      1.0000 0.94758  0.58558  0.41063  Biso   1.000  N 
  N13      1.0000 0.94758  0.41443  0.91063  Biso   1.000  N 
  N14      1.0000 0.56413  0.04818  0.91419  Biso   1.000  N 
  N15      1.0000 0.43587  0.95181  0.08583  Biso   1.000  N 
  N16      1.0000 0.55241  0.91442  0.58937  Biso   1.000  N 
