data_image0
_cell_length_a       24.3559
_cell_length_b       10.0818
_cell_length_c       6.56327
_cell_angle_alpha    90.0001
_cell_angle_beta     93.507
_cell_angle_gamma    90

_symmetry_space_group_name_H-M    "P 1"
_symmetry_int_tables_number       1

loop_
  _symmetry_equiv_pos_as_xyz
  'x, y, z'

loop_
  _atom_site_label
  _atom_site_occupancy
  _atom_site_fract_x
  _atom_site_fract_y
  _atom_site_fract_z
  _atom_site_thermal_displace_type
  _atom_site_B_iso_or_equiv
  _atom_site_type_symbol
  C1       1.0000 0.39219  0.90536  0.16106  Biso   1.000  C 
  C2       1.0000 0.09533  0.29824  0.62677  Biso   1.000  C 
  C3       1.0000 0.10780  0.40536  0.33894  Biso   1.000  C 
  C4       1.0000 0.59533  0.20176  0.12677  Biso   1.000  C 
  C5       1.0000 0.90467  0.29825  0.87323  Biso   1.000  C 
  C6       1.0000 0.80710  0.28229  0.00908  Biso   1.000  C 
  C7       1.0000 0.86486  0.32195  0.01582  Biso   1.000  C 
  C8       1.0000 0.89220  0.40536  0.16106  Biso   1.000  C 
  C9       1.0000 0.27484  0.80468  0.17673  Biso   1.000  C 
  C10      1.0000 0.21919  0.77334  0.16790  Biso   1.000  C 
  C11      1.0000 0.30709  0.78229  0.00907  Biso   1.000  C 
  C12      1.0000 0.71919  0.27334  0.16790  Biso   1.000  C 
  C13      1.0000 0.59533  0.79824  0.62677  Biso   1.000  C 
  C14      1.0000 0.69291  0.78229  0.49093  Biso   1.000  C 
  C15      1.0000 0.78081  0.77334  0.33210  Biso   1.000  C 
  C16      1.0000 0.72516  0.80469  0.32327  Biso   1.000  C 
  C17      1.0000 0.36486  0.82195  0.01583  Biso   1.000  C 
  C18      1.0000 0.40467  0.79824  0.87323  Biso   1.000  C 
  C19      1.0000 0.63515  0.82195  0.48418  Biso   1.000  C 
  C20      1.0000 0.77484  0.30468  0.17673  Biso   1.000  C 
  C21      1.0000 0.71920  0.72667  0.66790  Biso   1.000  C 
  C22      1.0000 0.60781  0.90536  0.33895  Biso   1.000  C 
  C23      1.0000 0.77484  0.69533  0.67674  Biso   1.000  C 
  C24      1.0000 0.80710  0.71773  0.50908  Biso   1.000  C 
  C25      1.0000 0.86486  0.67806  0.51582  Biso   1.000  C 
  C26      1.0000 0.90468  0.70176  0.37323  Biso   1.000  C 
  C27      1.0000 0.19290  0.28227  0.49092  Biso   1.000  C 
  C28      1.0000 0.28080  0.27332  0.33209  Biso   1.000  C 
  C29      1.0000 0.22516  0.30466  0.32327  Biso   1.000  C 
  C30      1.0000 0.60781  0.09464  0.83894  Biso   1.000  C 
  C31      1.0000 0.63514  0.17806  0.98417  Biso   1.000  C 
  C32      1.0000 0.69290  0.21773  0.99092  Biso   1.000  C 
  C33      1.0000 0.78080  0.22668  0.83209  Biso   1.000  C 
  C34      1.0000 0.72516  0.19534  0.82326  Biso   1.000  C 
  C35      1.0000 0.10781  0.59465  0.83894  Biso   1.000  C 
  C36      1.0000 0.09533  0.70176  0.12676  Biso   1.000  C 
  C37      1.0000 0.19290  0.71773  0.99091  Biso   1.000  C 
  C38      1.0000 0.22516  0.69533  0.82326  Biso   1.000  C 
  C39      1.0000 0.39220  0.09464  0.66106  Biso   1.000  C 
  C40      1.0000 0.40467  0.20175  0.37323  Biso   1.000  C 
  C41      1.0000 0.36486  0.17805  0.51583  Biso   1.000  C 
  C42      1.0000 0.30710  0.21771  0.50907  Biso   1.000  C 
  C43      1.0000 0.21919  0.22666  0.66790  Biso   1.000  C 
  C44      1.0000 0.27484  0.19532  0.67674  Biso   1.000  C 
  C45      1.0000 0.89220  0.59465  0.66105  Biso   1.000  C 
  C46      1.0000 0.13514  0.67805  0.98417  Biso   1.000  C 
  C47      1.0000 0.13514  0.32194  0.48418  Biso   1.000  C 
  C48      1.0000 0.28080  0.72667  0.83209  Biso   1.000  C 
  Co1      1.0000 1.00000  0.45974  0.75000  Biso   1.000  Co
  Co2      1.0000 0.50000  0.95974  0.75000  Biso   1.000  Co
  Co3      1.0000 0.50000  0.04025  0.25000  Biso   1.000  Co
  Co4      1.0000 1.00000  0.54025  0.25000  Biso   1.000  Co
  H1       1.0000 0.30408  0.29097  0.19784  Biso   1.000  H 
  H2       1.0000 0.29360  0.84728  0.31710  Biso   1.000  H 
  H3       1.0000 0.09815  0.24084  0.76703  Biso   1.000  H 
  H4       1.0000 0.40184  0.74084  0.73296  Biso   1.000  H 
  H5       1.0000 0.30408  0.70902  0.69784  Biso   1.000  H 
  H6       1.0000 0.20640  0.65273  0.68289  Biso   1.000  H 
  H7       1.0000 0.79360  0.34727  0.31711  Biso   1.000  H 
  H8       1.0000 0.70640  0.15274  0.68288  Biso   1.000  H 
  H9       1.0000 0.62265  0.05062  0.70176  Biso   1.000  H 
  H10      1.0000 0.59816  0.25916  0.26703  Biso   1.000  H 
  H11      1.0000 0.87735  0.44938  0.29824  Biso   1.000  H 
  H12      1.0000 0.12265  0.55062  0.70176  Biso   1.000  H 
  H13      1.0000 0.09816  0.75916  0.26703  Biso   1.000  H 
  H14      1.0000 0.20640  0.34726  0.18289  Biso   1.000  H 
  H15      1.0000 0.62265  0.94938  0.20178  Biso   1.000  H 
  H16      1.0000 0.80408  0.20903  0.69784  Biso   1.000  H 
  H17      1.0000 0.79361  0.65272  0.81710  Biso   1.000  H 
  H18      1.0000 0.19592  0.20902  0.80216  Biso   1.000  H 
  H19      1.0000 0.69592  0.70901  0.80216  Biso   1.000  H 
  H20      1.0000 0.90185  0.75916  0.23296  Biso   1.000  H 
  H21      1.0000 0.87735  0.55063  0.79823  Biso   1.000  H 
  H22      1.0000 0.80409  0.79100  0.19785  Biso   1.000  H 
  H23      1.0000 0.70640  0.84729  0.18290  Biso   1.000  H 
  H24      1.0000 0.12265  0.44938  0.20177  Biso   1.000  H 
  H25      1.0000 0.29360  0.15272  0.81711  Biso   1.000  H 
  H26      1.0000 0.40184  0.25916  0.23296  Biso   1.000  H 
  H27      1.0000 0.37735  0.05062  0.79823  Biso   1.000  H 
  H28      1.0000 0.37735  0.94938  0.29823  Biso   1.000  H 
  H29      1.0000 0.69592  0.29099  0.30215  Biso   1.000  H 
  H30      1.0000 0.19591  0.79099  0.30215  Biso   1.000  H 
  H31      1.0000 0.59816  0.74084  0.76704  Biso   1.000  H 
  H32      1.0000 0.90184  0.24085  0.73296  Biso   1.000  H 
  N1       1.0000 0.54838  0.13577  0.07149  Biso   1.000  N 
  N2       1.0000 0.05637  0.43069  0.39367  Biso   1.000  N 
  N3       1.0000 0.04838  0.63578  0.07148  Biso   1.000  N 
  N4       1.0000 0.05637  0.56932  0.89367  Biso   1.000  N 
  N5       1.0000 0.45162  0.86422  0.92851  Biso   1.000  N 
  N6       1.0000 0.45162  0.13577  0.42851  Biso   1.000  N 
  N7       1.0000 0.55637  0.93068  0.39368  Biso   1.000  N 
  N8       1.0000 0.94363  0.56931  0.60633  Biso   1.000  N 
  N9       1.0000 0.04838  0.36422  0.57149  Biso   1.000  N 
  N10      1.0000 0.94363  0.43068  0.10633  Biso   1.000  N 
  N11      1.0000 0.95162  0.63578  0.42851  Biso   1.000  N 
  N12      1.0000 0.95162  0.36422  0.92851  Biso   1.000  N 
  N13      1.0000 0.55637  0.06931  0.89367  Biso   1.000  N 
  N14      1.0000 0.44363  0.93068  0.10633  Biso   1.000  N 
  N15      1.0000 0.44363  0.06931  0.60633  Biso   1.000  N 
  N16      1.0000 0.54838  0.86421  0.57150  Biso   1.000  N 
