data_image0
_cell_length_a       24.8364
_cell_length_b       6.60138
_cell_length_c       6.95374
_cell_angle_alpha    90.0081
_cell_angle_beta     86.921
_cell_angle_gamma    89.9934

_symmetry_space_group_name_H-M    "P 1"
_symmetry_int_tables_number       1

loop_
  _symmetry_equiv_pos_as_xyz
  'x, y, z'

loop_
  _atom_site_label
  _atom_site_occupancy
  _atom_site_fract_x
  _atom_site_fract_y
  _atom_site_fract_z
  _atom_site_thermal_displace_type
  _atom_site_B_iso_or_equiv
  _atom_site_type_symbol
  C1       1.0000 0.39360  0.85558  0.17714  Biso   1.000  C 
  C2       1.0000 0.10639  0.35527  0.32289  Biso   1.000  C 
  C3       1.0000 0.59465  0.27230  0.11481  Biso   1.000  C 
  C4       1.0000 0.90534  0.22773  0.88516  Biso   1.000  C 
  C5       1.0000 0.80671  0.24758  0.02094  Biso   1.000  C 
  C6       1.0000 0.86520  0.26194  0.03246  Biso   1.000  C 
  C7       1.0000 0.89349  0.35562  0.17829  Biso   1.000  C 
  C8       1.0000 0.27200  0.85823  0.14818  Biso   1.000  C 
  C9       1.0000 0.21665  0.86079  0.12809  Biso   1.000  C 
  C10      1.0000 0.30675  0.74753  0.02035  Biso   1.000  C 
  C11      1.0000 0.71655  0.36086  0.12759  Biso   1.000  C 
  C12      1.0000 0.69330  0.74757  0.47898  Biso   1.000  C 
  C13      1.0000 0.78345  0.86087  0.37234  Biso   1.000  C 
  C14      1.0000 0.72813  0.85832  0.35157  Biso   1.000  C 
  C15      1.0000 0.36525  0.76200  0.03143  Biso   1.000  C 
  C16      1.0000 0.40533  0.72808  0.88382  Biso   1.000  C 
  C17      1.0000 0.63481  0.76203  0.46744  Biso   1.000  C 
  C18      1.0000 0.77187  0.35836  0.14835  Biso   1.000  C 
  C19      1.0000 0.71656  0.63921  0.62754  Biso   1.000  C 
  C20      1.0000 0.60651  0.85570  0.32163  Biso   1.000  C 
  C21      1.0000 0.77188  0.64173  0.64832  Biso   1.000  C 
  C22      1.0000 0.59467  0.72789  0.61476  Biso   1.000  C 
  C23      1.0000 0.09467  0.22776  0.61616  Biso   1.000  C 
  C24      1.0000 0.80672  0.75247  0.52091  Biso   1.000  C 
  C25      1.0000 0.86520  0.73801  0.53246  Biso   1.000  C 
  C26      1.0000 0.90535  0.77212  0.38517  Biso   1.000  C 
  C27      1.0000 0.28333  0.36083  0.37205  Biso   1.000  C 
  C28      1.0000 0.22798  0.35817  0.35191  Biso   1.000  C 
  C29      1.0000 0.60650  0.14443  0.82167  Biso   1.000  C 
  C30      1.0000 0.63479  0.23812  0.96750  Biso   1.000  C 
  C31      1.0000 0.69328  0.25248  0.97902  Biso   1.000  C 
  C32      1.0000 0.78344  0.13917  0.87237  Biso   1.000  C 
  C33      1.0000 0.72812  0.14169  0.85160  Biso   1.000  C 
  C34      1.0000 0.10640  0.64444  0.82291  Biso   1.000  C 
  C35      1.0000 0.09467  0.77186  0.11625  Biso   1.000  C 
  C36      1.0000 0.19325  0.75245  0.97974  Biso   1.000  C 
  C37      1.0000 0.22799  0.64178  0.85188  Biso   1.000  C 
  C38      1.0000 0.40534  0.27225  0.38391  Biso   1.000  C 
  C39      1.0000 0.36525  0.23826  0.53149  Biso   1.000  C 
  C40      1.0000 0.30675  0.25256  0.52039  Biso   1.000  C 
  C41      1.0000 0.21667  0.13913  0.62800  Biso   1.000  C 
  C42      1.0000 0.27202  0.14179  0.64814  Biso   1.000  C 
  C43      1.0000 0.89349  0.64428  0.67829  Biso   1.000  C 
  C44      1.0000 0.13475  0.73797  0.96866  Biso   1.000  C 
  C45      1.0000 0.13475  0.26173  0.46860  Biso   1.000  C 
  C46      1.0000 0.28335  0.63922  0.87199  Biso   1.000  C 
  C47      1.0000 0.19325  0.24739  0.47969  Biso   1.000  C 
  C48      1.0000 0.39362  0.14466  0.67716  Biso   1.000  C 
  Co1      1.0000 0.99997  0.46117  0.75071  Biso   1.000  Co
  Co2      1.0000 0.50003  0.96136  0.74929  Biso   1.000  Co
  Co3      1.0000 0.50003  0.03882  0.24927  Biso   1.000  Co
  Co4      1.0000 0.99996  0.53859  0.25074  Biso   1.000  Co
  H1       1.0000 0.71184  0.05245  0.73645  Biso   1.000  H 
  H2       1.0000 0.21159  0.44728  0.23689  Biso   1.000  H 
  H3       1.0000 0.09823  0.83612  0.25887  Biso   1.000  H 
  H4       1.0000 0.12098  0.59523  0.68067  Biso   1.000  H 
  H5       1.0000 0.87882  0.40524  0.32029  Biso   1.000  H 
  H6       1.0000 0.59819  0.33678  0.25733  Biso   1.000  H 
  H7       1.0000 0.62117  0.09480  0.67965  Biso   1.000  H 
  H8       1.0000 0.30870  0.44921  0.27069  Biso   1.000  H 
  H9       1.0000 0.21161  0.55268  0.73685  Biso   1.000  H 
  H10      1.0000 0.30871  0.55085  0.77058  Biso   1.000  H 
  H11      1.0000 0.40176  0.66380  0.74121  Biso   1.000  H 
  H12      1.0000 0.09827  0.16350  0.75873  Biso   1.000  H 
  H13      1.0000 0.28839  0.94733  0.26323  Biso   1.000  H 
  H14      1.0000 0.80891  0.05081  0.77126  Biso   1.000  H 
  H15      1.0000 0.62116  0.90521  0.17960  Biso   1.000  H 
  H16      1.0000 0.78814  0.44757  0.26351  Biso   1.000  H 
  H17      1.0000 0.78816  0.55251  0.76348  Biso   1.000  H 
  H18      1.0000 0.12099  0.40456  0.18071  Biso   1.000  H 
  H19      1.0000 0.59819  0.66343  0.75731  Biso   1.000  H 
  H20      1.0000 0.19128  0.94915  0.22950  Biso   1.000  H 
  H21      1.0000 0.69108  0.44919  0.22869  Biso   1.000  H 
  H22      1.0000 0.37903  0.90480  0.31937  Biso   1.000  H 
  H23      1.0000 0.37903  0.09536  0.81931  Biso   1.000  H 
  H24      1.0000 0.40175  0.33650  0.24130  Biso   1.000  H 
  H25      1.0000 0.90179  0.16328  0.74262  Biso   1.000  H 
  H26      1.0000 0.71185  0.94752  0.23640  Biso   1.000  H 
  H27      1.0000 0.80891  0.94920  0.27127  Biso   1.000  H 
  H28      1.0000 0.87882  0.59479  0.82033  Biso   1.000  H 
  H29      1.0000 0.90184  0.83665  0.24266  Biso   1.000  H 
  H30      1.0000 0.69110  0.55085  0.72861  Biso   1.000  H 
  H31      1.0000 0.19132  0.05073  0.72936  Biso   1.000  H 
  H32      1.0000 0.28842  0.05268  0.76312  Biso   1.000  H 
  N1       1.0000 0.94552  0.61577  0.61823  Biso   1.000  N 
  N2       1.0000 0.54701  0.19452  0.06436  Biso   1.000  N 
  N3       1.0000 0.05438  0.38380  0.38323  Biso   1.000  N 
  N4       1.0000 0.04701  0.69407  0.06592  Biso   1.000  N 
  N5       1.0000 0.05440  0.61582  0.88322  Biso   1.000  N 
  N6       1.0000 0.45300  0.19445  0.43417  Biso   1.000  N 
  N7       1.0000 0.55448  0.88422  0.38173  Biso   1.000  N 
  N8       1.0000 0.95299  0.69429  0.43567  Biso   1.000  N 
  N9       1.0000 0.04700  0.30552  0.56591  Biso   1.000  N 
  N10      1.0000 0.94552  0.38403  0.11820  Biso   1.000  N 
  N11      1.0000 0.95299  0.30548  0.93562  Biso   1.000  N 
  N12      1.0000 0.55447  0.11599  0.88178  Biso   1.000  N 
  N13      1.0000 0.44560  0.88417  0.11679  Biso   1.000  N 
  N14      1.0000 0.44562  0.11612  0.61683  Biso   1.000  N 
  N15      1.0000 0.45298  0.80589  0.93411  Biso   1.000  N 
  N16      1.0000 0.54703  0.80573  0.56430  Biso   1.000  N 
