data_image0
_cell_length_a       19.7557
_cell_length_b       17.9787
_cell_length_c       6.84756
_cell_angle_alpha    90.0012
_cell_angle_beta     98.5439
_cell_angle_gamma    90.0001

_symmetry_space_group_name_H-M    "P 1"
_symmetry_int_tables_number       1

loop_
  _symmetry_equiv_pos_as_xyz
  'x, y, z'

loop_
  _atom_site_label
  _atom_site_occupancy
  _atom_site_fract_x
  _atom_site_fract_y
  _atom_site_fract_z
  _atom_site_thermal_displace_type
  _atom_site_B_iso_or_equiv
  _atom_site_type_symbol
  C1       1.0000 0.38201  0.91116  0.14271  Biso   1.000  C 
  C2       1.0000 0.19613  0.30313  0.50093  Biso   1.000  C 
  C3       1.0000 0.28250  0.24275  0.33467  Biso   1.000  C 
  C4       1.0000 0.23017  0.29437  0.33564  Biso   1.000  C 
  C5       1.0000 0.61798  0.08884  0.85728  Biso   1.000  C 
  C6       1.0000 0.64106  0.14258  0.00157  Biso   1.000  C 
  C7       1.0000 0.69612  0.19688  0.00093  Biso   1.000  C 
  C8       1.0000 0.78250  0.25725  0.83467  Biso   1.000  C 
  C9       1.0000 0.73016  0.20563  0.83564  Biso   1.000  C 
  C10      1.0000 0.11799  0.58883  0.85727  Biso   1.000  C 
  C11      1.0000 0.09839  0.63136  0.14663  Biso   1.000  C 
  C12      1.0000 0.19612  0.69687  0.00092  Biso   1.000  C 
  C13      1.0000 0.28250  0.75725  0.83466  Biso   1.000  C 
  C14      1.0000 0.23016  0.70563  0.83563  Biso   1.000  C 
  C15      1.0000 0.38201  0.08884  0.64273  Biso   1.000  C 
  C16      1.0000 0.40161  0.13136  0.35337  Biso   1.000  C 
  C17      1.0000 0.35894  0.14258  0.49845  Biso   1.000  C 
  C18      1.0000 0.30388  0.19688  0.49908  Biso   1.000  C 
  C19      1.0000 0.21750  0.25726  0.66534  Biso   1.000  C 
  C20      1.0000 0.26984  0.20564  0.66437  Biso   1.000  C 
  C21      1.0000 0.88201  0.58884  0.64272  Biso   1.000  C 
  C22      1.0000 0.14106  0.64257  0.00156  Biso   1.000  C 
  C23      1.0000 0.14107  0.35743  0.50157  Biso   1.000  C 
  C24      1.0000 0.90162  0.63136  0.35336  Biso   1.000  C 
  C25      1.0000 0.85894  0.64258  0.49844  Biso   1.000  C 
  C26      1.0000 0.80388  0.69688  0.49907  Biso   1.000  C 
  C27      1.0000 0.76984  0.70563  0.66436  Biso   1.000  C 
  C28      1.0000 0.09839  0.36864  0.64663  Biso   1.000  C 
  C29      1.0000 0.11800  0.41117  0.35728  Biso   1.000  C 
  C30      1.0000 0.59838  0.13136  0.14664  Biso   1.000  C 
  C31      1.0000 0.90161  0.36864  0.85336  Biso   1.000  C 
  C32      1.0000 0.80388  0.30313  0.99908  Biso   1.000  C 
  C33      1.0000 0.85893  0.35742  0.99844  Biso   1.000  C 
  C34      1.0000 0.88201  0.41116  0.14273  Biso   1.000  C 
  C35      1.0000 0.26984  0.79436  0.16435  Biso   1.000  C 
  C36      1.0000 0.21750  0.74274  0.16533  Biso   1.000  C 
  C37      1.0000 0.30388  0.80312  0.99906  Biso   1.000  C 
  C38      1.0000 0.71749  0.24275  0.16534  Biso   1.000  C 
  C39      1.0000 0.59839  0.86864  0.64663  Biso   1.000  C 
  C40      1.0000 0.69612  0.80312  0.50093  Biso   1.000  C 
  C41      1.0000 0.78250  0.74274  0.33467  Biso   1.000  C 
  C42      1.0000 0.73016  0.79436  0.33564  Biso   1.000  C 
  C43      1.0000 0.35894  0.85742  0.99843  Biso   1.000  C 
  C44      1.0000 0.40161  0.86863  0.85336  Biso   1.000  C 
  C45      1.0000 0.64106  0.85742  0.50156  Biso   1.000  C 
  C46      1.0000 0.76983  0.29437  0.16436  Biso   1.000  C 
  C47      1.0000 0.71750  0.75726  0.66533  Biso   1.000  C 
  C48      1.0000 0.61799  0.91116  0.35727  Biso   1.000  C 
  Co1      1.0000 0.00000  0.51479  0.25000  Biso   1.000  Co
  Co2      1.0000 0.49999  0.01479  0.24999  Biso   1.000  Co
  Co3      1.0000 0.49999  0.98520  0.74999  Biso   1.000  Co
  Co4      1.0000 1.00000  0.48520  0.74999  Biso   1.000  Co
  H1       1.0000 0.28465  0.17142  0.79535  Biso   1.000  H 
  H2       1.0000 0.69287  0.76212  0.79721  Biso   1.000  H 
  H3       1.0000 0.90266  0.65987  0.21400  Biso   1.000  H 
  H4       1.0000 0.86448  0.57647  0.78215  Biso   1.000  H 
  H5       1.0000 0.80714  0.73788  0.20278  Biso   1.000  H 
  H6       1.0000 0.71535  0.82858  0.20465  Biso   1.000  H 
  H7       1.0000 0.13553  0.42354  0.21786  Biso   1.000  H 
  H8       1.0000 0.90265  0.34014  0.71398  Biso   1.000  H 
  H9       1.0000 0.40266  0.15987  0.21401  Biso   1.000  H 
  H10      1.0000 0.36448  0.07647  0.78216  Biso   1.000  H 
  H11      1.0000 0.36448  0.92354  0.28214  Biso   1.000  H 
  H12      1.0000 0.69286  0.23789  0.29722  Biso   1.000  H 
  H13      1.0000 0.19287  0.73788  0.29721  Biso   1.000  H 
  H14      1.0000 0.59734  0.84013  0.78600  Biso   1.000  H 
  H15      1.0000 0.78465  0.67142  0.79534  Biso   1.000  H 
  H16      1.0000 0.19287  0.26213  0.79722  Biso   1.000  H 
  H17      1.0000 0.63552  0.92353  0.21784  Biso   1.000  H 
  H18      1.0000 0.21536  0.32858  0.20466  Biso   1.000  H 
  H19      1.0000 0.09734  0.65987  0.28600  Biso   1.000  H 
  H20      1.0000 0.13552  0.57646  0.71784  Biso   1.000  H 
  H21      1.0000 0.86448  0.42353  0.28216  Biso   1.000  H 
  H22      1.0000 0.59734  0.15987  0.28600  Biso   1.000  H 
  H23      1.0000 0.63552  0.07646  0.71785  Biso   1.000  H 
  H24      1.0000 0.80713  0.26211  0.70279  Biso   1.000  H 
  H25      1.0000 0.71535  0.17142  0.70466  Biso   1.000  H 
  H26      1.0000 0.78465  0.32859  0.29534  Biso   1.000  H 
  H27      1.0000 0.21535  0.67141  0.70465  Biso   1.000  H 
  H28      1.0000 0.30713  0.76212  0.70278  Biso   1.000  H 
  H29      1.0000 0.40266  0.84012  0.71400  Biso   1.000  H 
  H30      1.0000 0.09734  0.34013  0.78599  Biso   1.000  H 
  H31      1.0000 0.28465  0.82858  0.29534  Biso   1.000  H 
  H32      1.0000 0.30714  0.23788  0.20280  Biso   1.000  H 
  N1       1.0000 0.43400  0.95074  0.08698  Biso   1.000  N 
  N2       1.0000 0.56599  0.04926  0.91302  Biso   1.000  N 
  N3       1.0000 0.94625  0.42431  0.90805  Biso   1.000  N 
  N4       1.0000 0.94625  0.57569  0.40805  Biso   1.000  N 
  N5       1.0000 0.93401  0.54926  0.58698  Biso   1.000  N 
  N6       1.0000 0.93401  0.45074  0.08699  Biso   1.000  N 
  N7       1.0000 0.05375  0.42431  0.59194  Biso   1.000  N 
  N8       1.0000 0.43400  0.04926  0.58699  Biso   1.000  N 
  N9       1.0000 0.56599  0.95074  0.41301  Biso   1.000  N 
  N10      1.0000 0.44625  0.07569  0.40806  Biso   1.000  N 
  N11      1.0000 0.44625  0.92430  0.90805  Biso   1.000  N 
  N12      1.0000 0.06599  0.54926  0.91302  Biso   1.000  N 
  N13      1.0000 0.05375  0.57569  0.09195  Biso   1.000  N 
  N14      1.0000 0.06600  0.45074  0.41302  Biso   1.000  N 
  N15      1.0000 0.55374  0.07569  0.09195  Biso   1.000  N 
  N16      1.0000 0.55375  0.92431  0.59194  Biso   1.000  N 
