data_image0
_cell_length_a       24.1783
_cell_length_b       10.6358
_cell_length_c       6.5797
_cell_angle_alpha    89.9991
_cell_angle_beta     93.9699
_cell_angle_gamma    90.0001

_symmetry_space_group_name_H-M    "P 1"
_symmetry_int_tables_number       1

loop_
  _symmetry_equiv_pos_as_xyz
  'x, y, z'

loop_
  _atom_site_label
  _atom_site_occupancy
  _atom_site_fract_x
  _atom_site_fract_y
  _atom_site_fract_z
  _atom_site_thermal_displace_type
  _atom_site_B_iso_or_equiv
  _atom_site_type_symbol
  C1       1.0000 0.39144  0.90979  0.15775  Biso   1.000  C 
  C2       1.0000 0.19313  0.28633  0.49184  Biso   1.000  C 
  C3       1.0000 0.28100  0.26990  0.33269  Biso   1.000  C 
  C4       1.0000 0.22557  0.30528  0.32472  Biso   1.000  C 
  C5       1.0000 0.60856  0.09021  0.84224  Biso   1.000  C 
  C6       1.0000 0.63554  0.17151  0.98590  Biso   1.000  C 
  C7       1.0000 0.69312  0.21366  0.99184  Biso   1.000  C 
  C8       1.0000 0.78100  0.23010  0.83270  Biso   1.000  C 
  C9       1.0000 0.72556  0.19472  0.82474  Biso   1.000  C 
  C10      1.0000 0.10856  0.59021  0.84224  Biso   1.000  C 
  C11      1.0000 0.09538  0.69319  0.12715  Biso   1.000  C 
  C12      1.0000 0.19312  0.71367  0.99183  Biso   1.000  C 
  C13      1.0000 0.28100  0.73010  0.83270  Biso   1.000  C 
  C14      1.0000 0.22557  0.69472  0.82472  Biso   1.000  C 
  C15      1.0000 0.39144  0.09021  0.65775  Biso   1.000  C 
  C16      1.0000 0.40462  0.19320  0.37283  Biso   1.000  C 
  C17      1.0000 0.36446  0.17151  0.51409  Biso   1.000  C 
  C18      1.0000 0.30688  0.21365  0.50816  Biso   1.000  C 
  C19      1.0000 0.21900  0.23008  0.66730  Biso   1.000  C 
  C20      1.0000 0.27443  0.19471  0.67527  Biso   1.000  C 
  C21      1.0000 0.89144  0.59021  0.65777  Biso   1.000  C 
  C22      1.0000 0.13554  0.67152  0.98590  Biso   1.000  C 
  C23      1.0000 0.13555  0.32848  0.48590  Biso   1.000  C 
  C24      1.0000 0.90462  0.69319  0.37284  Biso   1.000  C 
  C25      1.0000 0.86446  0.67152  0.51411  Biso   1.000  C 
  C26      1.0000 0.80688  0.71366  0.50818  Biso   1.000  C 
  C27      1.0000 0.77444  0.69471  0.67529  Biso   1.000  C 
  C28      1.0000 0.09538  0.30681  0.62715  Biso   1.000  C 
  C29      1.0000 0.10856  0.40979  0.34223  Biso   1.000  C 
  C30      1.0000 0.59538  0.19319  0.12716  Biso   1.000  C 
  C31      1.0000 0.90462  0.30681  0.87283  Biso   1.000  C 
  C32      1.0000 0.80687  0.28634  0.00816  Biso   1.000  C 
  C33      1.0000 0.86445  0.32849  0.01409  Biso   1.000  C 
  C34      1.0000 0.89144  0.40979  0.15775  Biso   1.000  C 
  C35      1.0000 0.27443  0.80529  0.17526  Biso   1.000  C 
  C36      1.0000 0.21900  0.76992  0.16730  Biso   1.000  C 
  C37      1.0000 0.30688  0.78634  0.00816  Biso   1.000  C 
  C38      1.0000 0.71900  0.26991  0.16731  Biso   1.000  C 
  C39      1.0000 0.59538  0.80681  0.62717  Biso   1.000  C 
  C40      1.0000 0.69313  0.78634  0.49186  Biso   1.000  C 
  C41      1.0000 0.78100  0.76992  0.33272  Biso   1.000  C 
  C42      1.0000 0.72557  0.80530  0.32476  Biso   1.000  C 
  C43      1.0000 0.36446  0.82849  0.01408  Biso   1.000  C 
  C44      1.0000 0.40462  0.80681  0.87282  Biso   1.000  C 
  C45      1.0000 0.63555  0.82848  0.48592  Biso   1.000  C 
  C46      1.0000 0.77443  0.30530  0.17528  Biso   1.000  C 
  C47      1.0000 0.71900  0.73009  0.66732  Biso   1.000  C 
  C48      1.0000 0.60856  0.90979  0.34224  Biso   1.000  C 
  Co1      1.0000 0.00000  0.53838  0.25000  Biso   1.000  Co
  Co2      1.0000 0.50000  0.03839  0.25000  Biso   1.000  Co
  Co3      1.0000 0.50000  0.96161  0.74999  Biso   1.000  Co
  Co4      1.0000 0.00000  0.46161  0.75000  Biso   1.000  Co
  H1       1.0000 0.29289  0.15184  0.81453  Biso   1.000  H 
  H2       1.0000 0.69555  0.71498  0.80103  Biso   1.000  H 
  H3       1.0000 0.90213  0.74891  0.23421  Biso   1.000  H 
  H4       1.0000 0.87626  0.54806  0.79347  Biso   1.000  H 
  H5       1.0000 0.80446  0.78502  0.19900  Biso   1.000  H 
  H6       1.0000 0.70711  0.84816  0.18549  Biso   1.000  H 
  H7       1.0000 0.12375  0.45195  0.20653  Biso   1.000  H 
  H8       1.0000 0.90212  0.25110  0.73420  Biso   1.000  H 
  H9       1.0000 0.40212  0.24891  0.23421  Biso   1.000  H 
  H10      1.0000 0.37626  0.04805  0.79345  Biso   1.000  H 
  H11      1.0000 0.37626  0.95194  0.29346  Biso   1.000  H 
  H12      1.0000 0.69555  0.28500  0.30102  Biso   1.000  H 
  H13      1.0000 0.19554  0.78502  0.30101  Biso   1.000  H 
  H14      1.0000 0.59787  0.75110  0.76580  Biso   1.000  H 
  H15      1.0000 0.79290  0.65184  0.81454  Biso   1.000  H 
  H16      1.0000 0.19555  0.21498  0.80102  Biso   1.000  H 
  H17      1.0000 0.62375  0.95194  0.20655  Biso   1.000  H 
  H18      1.0000 0.20711  0.34814  0.18546  Biso   1.000  H 
  H19      1.0000 0.09787  0.74891  0.26578  Biso   1.000  H 
  H20      1.0000 0.12374  0.54806  0.70652  Biso   1.000  H 
  H21      1.0000 0.87626  0.45194  0.29347  Biso   1.000  H 
  H22      1.0000 0.59787  0.24890  0.26578  Biso   1.000  H 
  H23      1.0000 0.62374  0.04805  0.70655  Biso   1.000  H 
  H24      1.0000 0.80445  0.21501  0.69898  Biso   1.000  H 
  H25      1.0000 0.70710  0.15185  0.68548  Biso   1.000  H 
  H26      1.0000 0.79289  0.34817  0.31454  Biso   1.000  H 
  H27      1.0000 0.20711  0.65185  0.68545  Biso   1.000  H 
  H28      1.0000 0.30445  0.71500  0.69899  Biso   1.000  H 
  H29      1.0000 0.40213  0.75110  0.73421  Biso   1.000  H 
  H30      1.0000 0.09788  0.25109  0.76579  Biso   1.000  H 
  H31      1.0000 0.29289  0.84816  0.31452  Biso   1.000  H 
  H32      1.0000 0.30445  0.28499  0.19898  Biso   1.000  H 
  N1       1.0000 0.44307  0.93531  0.10378  Biso   1.000  N 
  N2       1.0000 0.55693  0.06470  0.89620  Biso   1.000  N 
  N3       1.0000 0.95145  0.37148  0.92765  Biso   1.000  N 
  N4       1.0000 0.95145  0.62851  0.42766  Biso   1.000  N 
  N5       1.0000 0.94307  0.56470  0.60380  Biso   1.000  N 
  N6       1.0000 0.94308  0.43529  0.10380  Biso   1.000  N 
  N7       1.0000 0.04855  0.37149  0.57234  Biso   1.000  N 
  N8       1.0000 0.44307  0.06471  0.60379  Biso   1.000  N 
  N9       1.0000 0.55693  0.93529  0.39619  Biso   1.000  N 
  N10      1.0000 0.45145  0.12852  0.42764  Biso   1.000  N 
  N11      1.0000 0.45145  0.87149  0.92765  Biso   1.000  N 
  N12      1.0000 0.05692  0.56470  0.89619  Biso   1.000  N 
  N13      1.0000 0.04855  0.62851  0.07233  Biso   1.000  N 
  N14      1.0000 0.05693  0.43530  0.39619  Biso   1.000  N 
  N15      1.0000 0.54855  0.12851  0.07233  Biso   1.000  N 
  N16      1.0000 0.54855  0.87148  0.57234  Biso   1.000  N 
