data_image0
_cell_length_a       24.8182
_cell_length_b       6.41626
_cell_length_c       6.94556
_cell_angle_alpha    90.0026
_cell_angle_beta     86.5085
_cell_angle_gamma    89.9941

_symmetry_space_group_name_H-M    "P 1"
_symmetry_int_tables_number       1

loop_
  _symmetry_equiv_pos_as_xyz
  'x, y, z'

loop_
  _atom_site_label
  _atom_site_occupancy
  _atom_site_fract_x
  _atom_site_fract_y
  _atom_site_fract_z
  _atom_site_thermal_displace_type
  _atom_site_B_iso_or_equiv
  _atom_site_type_symbol
  C1       1.0000 0.39351  0.85093  0.17882  Biso   1.000  C 
  C2       1.0000 0.22811  0.35830  0.35004  Biso   1.000  C 
  C3       1.0000 0.60658  0.14888  0.82008  Biso   1.000  C 
  C4       1.0000 0.63484  0.24334  0.96654  Biso   1.000  C 
  C5       1.0000 0.69336  0.25521  0.97846  Biso   1.000  C 
  C6       1.0000 0.78350  0.13653  0.87123  Biso   1.000  C 
  C7       1.0000 0.72823  0.14161  0.84980  Biso   1.000  C 
  C8       1.0000 0.10649  0.64907  0.82120  Biso   1.000  C 
  C9       1.0000 0.09454  0.77859  0.11581  Biso   1.000  C 
  C10      1.0000 0.19334  0.75513  0.97906  Biso   1.000  C 
  C11      1.0000 0.22813  0.64167  0.85002  Biso   1.000  C 
  C12      1.0000 0.40545  0.27887  0.38425  Biso   1.000  C 
  C13      1.0000 0.36518  0.24347  0.53245  Biso   1.000  C 
  C14      1.0000 0.30666  0.25527  0.52099  Biso   1.000  C 
  C15      1.0000 0.21660  0.13647  0.62910  Biso   1.000  C 
  C16      1.0000 0.27189  0.14169  0.65000  Biso   1.000  C 
  C17      1.0000 0.89342  0.64880  0.67992  Biso   1.000  C 
  C18      1.0000 0.13482  0.74326  0.96760  Biso   1.000  C 
  C19      1.0000 0.13482  0.25651  0.46759  Biso   1.000  C 
  C20      1.0000 0.28342  0.63657  0.87091  Biso   1.000  C 
  C21      1.0000 0.19334  0.24472  0.47905  Biso   1.000  C 
  C22      1.0000 0.39351  0.14927  0.67882  Biso   1.000  C 
  C23      1.0000 0.28340  0.36352  0.37095  Biso   1.000  C 
  C24      1.0000 0.90551  0.77883  0.38556  Biso   1.000  C 
  C25      1.0000 0.86516  0.74326  0.53345  Biso   1.000  C 
  C26      1.0000 0.80665  0.75516  0.52151  Biso   1.000  C 
  C27      1.0000 0.10649  0.35068  0.32119  Biso   1.000  C 
  C28      1.0000 0.59449  0.27896  0.11443  Biso   1.000  C 
  C29      1.0000 0.90550  0.22107  0.88555  Biso   1.000  C 
  C30      1.0000 0.80664  0.24485  0.02150  Biso   1.000  C 
  C31      1.0000 0.86515  0.25670  0.03344  Biso   1.000  C 
  C32      1.0000 0.89341  0.35113  0.17990  Biso   1.000  C 
  C33      1.0000 0.27187  0.85831  0.15003  Biso   1.000  C 
  C34      1.0000 0.21658  0.86342  0.12914  Biso   1.000  C 
  C35      1.0000 0.30666  0.74485  0.02098  Biso   1.000  C 
  C36      1.0000 0.71649  0.36352  0.12874  Biso   1.000  C 
  C37      1.0000 0.69336  0.74488  0.47843  Biso   1.000  C 
  C38      1.0000 0.72824  0.85846  0.34980  Biso   1.000  C 
  C39      1.0000 0.36518  0.75671  0.03243  Biso   1.000  C 
  C40      1.0000 0.40546  0.72136  0.88422  Biso   1.000  C 
  C41      1.0000 0.63485  0.75677  0.46649  Biso   1.000  C 
  C42      1.0000 0.77176  0.35845  0.15015  Biso   1.000  C 
  C43      1.0000 0.71650  0.63653  0.62869  Biso   1.000  C 
  C44      1.0000 0.60659  0.85123  0.32005  Biso   1.000  C 
  C45      1.0000 0.77177  0.64156  0.65014  Biso   1.000  C 
  C46      1.0000 0.59450  0.72118  0.61440  Biso   1.000  C 
  C47      1.0000 0.09455  0.22113  0.61579  Biso   1.000  C 
  C48      1.0000 0.78351  0.86350  0.37124  Biso   1.000  C 
  Co1      1.0000 1.00000  0.53836  0.25071  Biso   1.000  Co
  Co2      1.0000 0.50002  0.03869  0.24929  Biso   1.000  Co
  Co3      1.0000 0.50000  0.96157  0.74929  Biso   1.000  Co
  Co4      1.0000 1.00000  0.46131  0.75075  Biso   1.000  Co
  H1       1.0000 0.28817  0.05281  0.76674  Biso   1.000  H 
  H2       1.0000 0.19112  0.04629  0.73137  Biso   1.000  H 
  H3       1.0000 0.69094  0.54630  0.73068  Biso   1.000  H 
  H4       1.0000 0.90215  0.84417  0.24247  Biso   1.000  H 
  H5       1.0000 0.87868  0.59841  0.82258  Biso   1.000  H 
  H6       1.0000 0.80907  0.95372  0.26923  Biso   1.000  H 
  H7       1.0000 0.71206  0.94744  0.23291  Biso   1.000  H 
  H8       1.0000 0.90214  0.15576  0.74244  Biso   1.000  H 
  H9       1.0000 0.37886  0.09911  0.82164  Biso   1.000  H 
  H10      1.0000 0.37885  0.90110  0.32164  Biso   1.000  H 
  H11      1.0000 0.69093  0.45377  0.23074  Biso   1.000  H 
  H12      1.0000 0.19108  0.95354  0.23143  Biso   1.000  H 
  H13      1.0000 0.59787  0.65587  0.75750  Biso   1.000  H 
  H14      1.0000 0.12113  0.40085  0.17835  Biso   1.000  H 
  H15      1.0000 0.78795  0.55258  0.76702  Biso   1.000  H 
  H16      1.0000 0.40202  0.34396  0.24108  Biso   1.000  H 
  H17      1.0000 0.62132  0.90161  0.17738  Biso   1.000  H 
  H18      1.0000 0.78795  0.44741  0.26703  Biso   1.000  H 
  H19      1.0000 0.21182  0.44717  0.23330  Biso   1.000  H 
  H20      1.0000 0.09797  0.84364  0.25899  Biso   1.000  H 
  H21      1.0000 0.12115  0.59893  0.67837  Biso   1.000  H 
  H22      1.0000 0.87868  0.40152  0.32257  Biso   1.000  H 
  H23      1.0000 0.59785  0.34428  0.25752  Biso   1.000  H 
  H24      1.0000 0.62132  0.09848  0.67742  Biso   1.000  H 
  H25      1.0000 0.71205  0.05266  0.73291  Biso   1.000  H 
  H26      1.0000 0.21186  0.55279  0.73326  Biso   1.000  H 
  H27      1.0000 0.30892  0.54644  0.76861  Biso   1.000  H 
  H28      1.0000 0.40203  0.65628  0.74105  Biso   1.000  H 
  H29      1.0000 0.09798  0.15607  0.75896  Biso   1.000  H 
  H30      1.0000 0.28813  0.94719  0.26680  Biso   1.000  H 
  H31      1.0000 0.80906  0.04629  0.76921  Biso   1.000  H 
  H32      1.0000 0.30888  0.45370  0.26865  Biso   1.000  H 
  N1       1.0000 0.45321  0.79975  0.93476  Biso   1.000  N 
  N2       1.0000 0.44569  0.12098  0.61816  Biso   1.000  N 
  N3       1.0000 0.44568  0.87926  0.11815  Biso   1.000  N 
  N4       1.0000 0.55437  0.12069  0.88047  Biso   1.000  N 
  N5       1.0000 0.95322  0.29952  0.93628  Biso   1.000  N 
  N6       1.0000 0.94562  0.37928  0.11954  Biso   1.000  N 
  N7       1.0000 0.04679  0.29948  0.56524  Biso   1.000  N 
  N8       1.0000 0.05432  0.62074  0.88186  Biso   1.000  N 
  N9       1.0000 0.55438  0.87944  0.38043  Biso   1.000  N 
  N10      1.0000 0.45321  0.20052  0.43480  Biso   1.000  N 
  N11      1.0000 0.04679  0.70020  0.06526  Biso   1.000  N 
  N12      1.0000 0.05431  0.37896  0.38186  Biso   1.000  N 
  N13      1.0000 0.54677  0.20047  0.06372  Biso   1.000  N 
  N14      1.0000 0.94562  0.62057  0.61956  Biso   1.000  N 
  N15      1.0000 0.95324  0.70033  0.43630  Biso   1.000  N 
  N16      1.0000 0.54678  0.79967  0.56369  Biso   1.000  N 
