data_image0
_cell_length_a       24.8309
_cell_length_b       6.80299
_cell_length_c       6.95139
_cell_angle_alpha    90.0017
_cell_angle_beta     87.2858
_cell_angle_gamma    89.9928

_symmetry_space_group_name_H-M    "P 1"
_symmetry_int_tables_number       1

loop_
  _symmetry_equiv_pos_as_xyz
  'x, y, z'

loop_
  _atom_site_label
  _atom_site_occupancy
  _atom_site_fract_x
  _atom_site_fract_y
  _atom_site_fract_z
  _atom_site_thermal_displace_type
  _atom_site_B_iso_or_equiv
  _atom_site_type_symbol
  C1       1.0000 0.39369  0.85966  0.17648  Biso   1.000  C 
  C2       1.0000 0.22799  0.35816  0.35351  Biso   1.000  C 
  C3       1.0000 0.60639  0.14031  0.82269  Biso   1.000  C 
  C4       1.0000 0.63469  0.23353  0.96781  Biso   1.000  C 
  C5       1.0000 0.69318  0.25029  0.97903  Biso   1.000  C 
  C6       1.0000 0.78348  0.14130  0.87399  Biso   1.000  C 
  C7       1.0000 0.72808  0.14186  0.85323  Biso   1.000  C 
  C8       1.0000 0.10631  0.64035  0.82355  Biso   1.000  C 
  C9       1.0000 0.09471  0.76587  0.11596  Biso   1.000  C 
  C10      1.0000 0.19316  0.75013  0.97957  Biso   1.000  C 
  C11      1.0000 0.22801  0.64178  0.85349  Biso   1.000  C 
  C12      1.0000 0.40528  0.26607  0.38414  Biso   1.000  C 
  C13      1.0000 0.36534  0.23351  0.53139  Biso   1.000  C 
  C14      1.0000 0.30683  0.25027  0.52052  Biso   1.000  C 
  C15      1.0000 0.21659  0.14127  0.62626  Biso   1.000  C 
  C16      1.0000 0.27201  0.14183  0.64656  Biso   1.000  C 
  C17      1.0000 0.89361  0.64024  0.67728  Biso   1.000  C 
  C18      1.0000 0.13466  0.73332  0.96870  Biso   1.000  C 
  C19      1.0000 0.13466  0.26648  0.46865  Biso   1.000  C 
  C20      1.0000 0.28343  0.64137  0.87376  Biso   1.000  C 
  C21      1.0000 0.19317  0.24972  0.47954  Biso   1.000  C 
  C22      1.0000 0.39370  0.14054  0.67651  Biso   1.000  C 
  C23      1.0000 0.28341  0.35872  0.37380  Biso   1.000  C 
  C24      1.0000 0.90529  0.76621  0.38510  Biso   1.000  C 
  C25      1.0000 0.86531  0.73346  0.53216  Biso   1.000  C 
  C26      1.0000 0.80681  0.75025  0.52092  Biso   1.000  C 
  C27      1.0000 0.10630  0.35943  0.32351  Biso   1.000  C 
  C28      1.0000 0.59471  0.26626  0.11489  Biso   1.000  C 
  C29      1.0000 0.90529  0.23377  0.88508  Biso   1.000  C 
  C30      1.0000 0.80681  0.24975  0.02092  Biso   1.000  C 
  C31      1.0000 0.86530  0.26650  0.03215  Biso   1.000  C 
  C32      1.0000 0.89360  0.35969  0.17728  Biso   1.000  C 
  C33      1.0000 0.27199  0.85818  0.14658  Biso   1.000  C 
  C34      1.0000 0.21657  0.85860  0.12630  Biso   1.000  C 
  C35      1.0000 0.30684  0.74984  0.02050  Biso   1.000  C 
  C36      1.0000 0.71651  0.35873  0.12596  Biso   1.000  C 
  C37      1.0000 0.69320  0.74979  0.47900  Biso   1.000  C 
  C38      1.0000 0.72809  0.85819  0.35321  Biso   1.000  C 
  C39      1.0000 0.36534  0.76666  0.03135  Biso   1.000  C 
  C40      1.0000 0.40528  0.73409  0.88408  Biso   1.000  C 
  C41      1.0000 0.63470  0.76656  0.46778  Biso   1.000  C 
  C42      1.0000 0.77191  0.35819  0.14671  Biso   1.000  C 
  C43      1.0000 0.71652  0.64133  0.62593  Biso   1.000  C 
  C44      1.0000 0.60639  0.85978  0.32267  Biso   1.000  C 
  C45      1.0000 0.77192  0.64184  0.64669  Biso   1.000  C 
  C46      1.0000 0.59472  0.73382  0.61486  Biso   1.000  C 
  C47      1.0000 0.09472  0.23394  0.61591  Biso   1.000  C 
  C48      1.0000 0.78349  0.85871  0.37398  Biso   1.000  C 
  Co1      1.0000 0.99996  0.53895  0.25047  Biso   1.000  Co
  Co2      1.0000 0.50004  0.03907  0.24951  Biso   1.000  Co
  Co3      1.0000 0.50004  0.96100  0.74954  Biso   1.000  Co
  Co4      1.0000 0.99996  0.46094  0.75049  Biso   1.000  Co
  H1       1.0000 0.28840  0.05268  0.76014  Biso   1.000  H 
  H2       1.0000 0.19124  0.05417  0.72611  Biso   1.000  H 
  H3       1.0000 0.69109  0.55425  0.72556  Biso   1.000  H 
  H4       1.0000 0.90169  0.82970  0.24287  Biso   1.000  H 
  H5       1.0000 0.87906  0.59113  0.81887  Biso   1.000  H 
  H6       1.0000 0.80892  0.94577  0.27435  Biso   1.000  H 
  H7       1.0000 0.71179  0.94734  0.23946  Biso   1.000  H 
  H8       1.0000 0.90168  0.17025  0.74285  Biso   1.000  H 
  H9       1.0000 0.37920  0.09159  0.81820  Biso   1.000  H 
  H10      1.0000 0.37918  0.90862  0.31815  Biso   1.000  H 
  H11      1.0000 0.69108  0.44584  0.22560  Biso   1.000  H 
  H12      1.0000 0.19120  0.94561  0.22618  Biso   1.000  H 
  H13      1.0000 0.59833  0.67031  0.75708  Biso   1.000  H 
  H14      1.0000 0.12080  0.40835  0.18182  Biso   1.000  H 
  H15      1.0000 0.78822  0.55268  0.76045  Biso   1.000  H 
  H16      1.0000 0.40163  0.32945  0.24188  Biso   1.000  H 
  H17      1.0000 0.62093  0.90888  0.18109  Biso   1.000  H 
  H18      1.0000 0.78822  0.44733  0.26046  Biso   1.000  H 
  H19      1.0000 0.21160  0.44731  0.23992  Biso   1.000  H 
  H20      1.0000 0.09836  0.82918  0.25824  Biso   1.000  H 
  H21      1.0000 0.12082  0.59140  0.68187  Biso   1.000  H 
  H22      1.0000 0.87906  0.40879  0.31888  Biso   1.000  H 
  H23      1.0000 0.59831  0.32978  0.25712  Biso   1.000  H 
  H24      1.0000 0.62093  0.09120  0.68111  Biso   1.000  H 
  H25      1.0000 0.71178  0.05272  0.73948  Biso   1.000  H 
  H26      1.0000 0.21164  0.55260  0.73989  Biso   1.000  H 
  H27      1.0000 0.30880  0.55437  0.77389  Biso   1.000  H 
  H28      1.0000 0.40163  0.67075  0.74181  Biso   1.000  H 
  H29      1.0000 0.09837  0.17059  0.75818  Biso   1.000  H 
  H30      1.0000 0.28836  0.94736  0.26018  Biso   1.000  H 
  H31      1.0000 0.80891  0.05420  0.77435  Biso   1.000  H 
  H32      1.0000 0.30876  0.44582  0.27394  Biso   1.000  H 
  N1       1.0000 0.45287  0.81132  0.93409  Biso   1.000  N 
  N2       1.0000 0.44558  0.11170  0.61624  Biso   1.000  N 
  N3       1.0000 0.44557  0.88846  0.11620  Biso   1.000  N 
  N4       1.0000 0.55450  0.11154  0.88283  Biso   1.000  N 
  N5       1.0000 0.95286  0.31109  0.93516  Biso   1.000  N 
  N6       1.0000 0.94549  0.38845  0.11717  Biso   1.000  N 
  N7       1.0000 0.04712  0.31116  0.56589  Biso   1.000  N 
  N8       1.0000 0.05443  0.61155  0.88381  Biso   1.000  N 
  N9       1.0000 0.55450  0.88854  0.38282  Biso   1.000  N 
  N10      1.0000 0.45288  0.18883  0.43412  Biso   1.000  N 
  N11      1.0000 0.04713  0.68866  0.06593  Biso   1.000  N 
  N12      1.0000 0.05443  0.38826  0.38377  Biso   1.000  N 
  N13      1.0000 0.54714  0.18891  0.06483  Biso   1.000  N 
  N14      1.0000 0.94550  0.61147  0.61717  Biso   1.000  N 
  N15      1.0000 0.95286  0.68885  0.43518  Biso   1.000  N 
  N16      1.0000 0.54715  0.81116  0.56481  Biso   1.000  N 
