data_image0
_cell_length_a       23.7562
_cell_length_b       11.8292
_cell_length_c       6.47119
_cell_angle_alpha    89.9997
_cell_angle_beta     96.4177
_cell_angle_gamma    90

_symmetry_space_group_name_H-M    "P 1"
_symmetry_int_tables_number       1

loop_
  _symmetry_equiv_pos_as_xyz
  'x, y, z'

loop_
  _atom_site_label
  _atom_site_occupancy
  _atom_site_fract_x
  _atom_site_fract_y
  _atom_site_fract_z
  _atom_site_thermal_displace_type
  _atom_site_B_iso_or_equiv
  _atom_site_type_symbol
  C1       1.0000 0.39011  0.91574  0.15129  Biso   1.000  C 
  C2       1.0000 0.19363  0.29183  0.49572  Biso   1.000  C 
  C3       1.0000 0.27929  0.26268  0.32692  Biso   1.000  C 
  C4       1.0000 0.22432  0.30343  0.32281  Biso   1.000  C 
  C5       1.0000 0.60989  0.08426  0.84871  Biso   1.000  C 
  C6       1.0000 0.63647  0.16233  0.99208  Biso   1.000  C 
  C7       1.0000 0.69364  0.20816  0.99572  Biso   1.000  C 
  C8       1.0000 0.77929  0.23732  0.82692  Biso   1.000  C 
  C9       1.0000 0.72432  0.19657  0.82281  Biso   1.000  C 
  C10      1.0000 0.10990  0.58426  0.84871  Biso   1.000  C 
  C11      1.0000 0.09604  0.68057  0.13211  Biso   1.000  C 
  C12      1.0000 0.19364  0.70816  0.99573  Biso   1.000  C 
  C13      1.0000 0.27929  0.73732  0.82692  Biso   1.000  C 
  C14      1.0000 0.22432  0.69657  0.82282  Biso   1.000  C 
  C15      1.0000 0.39011  0.08426  0.65128  Biso   1.000  C 
  C16      1.0000 0.40396  0.18057  0.36788  Biso   1.000  C 
  C17      1.0000 0.36353  0.16232  0.50791  Biso   1.000  C 
  C18      1.0000 0.30636  0.20816  0.50426  Biso   1.000  C 
  C19      1.0000 0.22071  0.23731  0.67307  Biso   1.000  C 
  C20      1.0000 0.27568  0.19656  0.67717  Biso   1.000  C 
  C21      1.0000 0.89011  0.58426  0.65129  Biso   1.000  C 
  C22      1.0000 0.13648  0.66233  0.99208  Biso   1.000  C 
  C23      1.0000 0.13647  0.33767  0.49209  Biso   1.000  C 
  C24      1.0000 0.90396  0.68057  0.36790  Biso   1.000  C 
  C25      1.0000 0.86353  0.66233  0.50792  Biso   1.000  C 
  C26      1.0000 0.80636  0.70817  0.50427  Biso   1.000  C 
  C27      1.0000 0.77568  0.69657  0.67718  Biso   1.000  C 
  C28      1.0000 0.09604  0.31943  0.63212  Biso   1.000  C 
  C29      1.0000 0.10989  0.41574  0.34871  Biso   1.000  C 
  C30      1.0000 0.59604  0.18058  0.13210  Biso   1.000  C 
  C31      1.0000 0.90396  0.31943  0.86790  Biso   1.000  C 
  C32      1.0000 0.80636  0.29184  0.00427  Biso   1.000  C 
  C33      1.0000 0.86352  0.33767  0.00792  Biso   1.000  C 
  C34      1.0000 0.89011  0.41574  0.15129  Biso   1.000  C 
  C35      1.0000 0.27568  0.80343  0.17718  Biso   1.000  C 
  C36      1.0000 0.22071  0.76269  0.17308  Biso   1.000  C 
  C37      1.0000 0.30636  0.79184  0.00427  Biso   1.000  C 
  C38      1.0000 0.72071  0.26269  0.17307  Biso   1.000  C 
  C39      1.0000 0.59604  0.81942  0.63212  Biso   1.000  C 
  C40      1.0000 0.69364  0.79184  0.49574  Biso   1.000  C 
  C41      1.0000 0.77929  0.76268  0.32692  Biso   1.000  C 
  C42      1.0000 0.72432  0.80343  0.32282  Biso   1.000  C 
  C43      1.0000 0.36353  0.83767  0.00792  Biso   1.000  C 
  C44      1.0000 0.40396  0.81943  0.86789  Biso   1.000  C 
  C45      1.0000 0.63648  0.83768  0.49209  Biso   1.000  C 
  C46      1.0000 0.77568  0.30344  0.17718  Biso   1.000  C 
  C47      1.0000 0.72071  0.73732  0.67308  Biso   1.000  C 
  C48      1.0000 0.60989  0.91574  0.34872  Biso   1.000  C 
  Co1      1.0000 1.00000  0.53739  0.25001  Biso   1.000  Co
  Co2      1.0000 0.50000  0.03740  0.25000  Biso   1.000  Co
  Co3      1.0000 0.50000  0.96261  0.75000  Biso   1.000  Co
  Co4      1.0000 0.00000  0.46260  0.74999  Biso   1.000  Co
  H1       1.0000 0.29532  0.15546  0.81811  Biso   1.000  H 
  H2       1.0000 0.69867  0.72785  0.81128  Biso   1.000  H 
  H3       1.0000 0.90184  0.73374  0.23043  Biso   1.000  H 
  H4       1.0000 0.87457  0.54541  0.78596  Biso   1.000  H 
  H5       1.0000 0.80132  0.77215  0.18873  Biso   1.000  H 
  H6       1.0000 0.70467  0.84454  0.18188  Biso   1.000  H 
  H7       1.0000 0.12543  0.45459  0.21404  Biso   1.000  H 
  H8       1.0000 0.90184  0.26626  0.73042  Biso   1.000  H 
  H9       1.0000 0.40184  0.23374  0.23041  Biso   1.000  H 
  H10      1.0000 0.37457  0.04541  0.78594  Biso   1.000  H 
  H11      1.0000 0.37457  0.95459  0.28596  Biso   1.000  H 
  H12      1.0000 0.69867  0.27215  0.31126  Biso   1.000  H 
  H13      1.0000 0.19867  0.77215  0.31127  Biso   1.000  H 
  H14      1.0000 0.59816  0.76625  0.76959  Biso   1.000  H 
  H15      1.0000 0.79533  0.65546  0.81813  Biso   1.000  H 
  H16      1.0000 0.19867  0.22785  0.81126  Biso   1.000  H 
  H17      1.0000 0.62543  0.95459  0.21406  Biso   1.000  H 
  H18      1.0000 0.20467  0.34453  0.18186  Biso   1.000  H 
  H19      1.0000 0.09816  0.73374  0.26959  Biso   1.000  H 
  H20      1.0000 0.12543  0.54541  0.71405  Biso   1.000  H 
  H21      1.0000 0.87457  0.45460  0.28595  Biso   1.000  H 
  H22      1.0000 0.59816  0.23374  0.26956  Biso   1.000  H 
  H23      1.0000 0.62543  0.04540  0.71405  Biso   1.000  H 
  H24      1.0000 0.80133  0.22786  0.68873  Biso   1.000  H 
  H25      1.0000 0.70468  0.15546  0.68186  Biso   1.000  H 
  H26      1.0000 0.79532  0.34455  0.31812  Biso   1.000  H 
  H27      1.0000 0.20468  0.65547  0.68187  Biso   1.000  H 
  H28      1.0000 0.30133  0.72786  0.68873  Biso   1.000  H 
  H29      1.0000 0.40184  0.76626  0.73042  Biso   1.000  H 
  H30      1.0000 0.09816  0.26626  0.76957  Biso   1.000  H 
  H31      1.0000 0.29533  0.84454  0.31813  Biso   1.000  H 
  H32      1.0000 0.30133  0.27214  0.18871  Biso   1.000  H 
  N1       1.0000 0.44193  0.94184  0.09896  Biso   1.000  N 
  N2       1.0000 0.55807  0.05816  0.90104  Biso   1.000  N 
  N3       1.0000 0.95077  0.38209  0.92428  Biso   1.000  N 
  N4       1.0000 0.95077  0.61791  0.42428  Biso   1.000  N 
  N5       1.0000 0.94193  0.55816  0.59896  Biso   1.000  N 
  N6       1.0000 0.94193  0.44184  0.09896  Biso   1.000  N 
  N7       1.0000 0.04923  0.38209  0.57573  Biso   1.000  N 
  N8       1.0000 0.44193  0.05816  0.59896  Biso   1.000  N 
  N9       1.0000 0.55807  0.94184  0.40104  Biso   1.000  N 
  N10      1.0000 0.45077  0.11791  0.42428  Biso   1.000  N 
  N11      1.0000 0.45077  0.88209  0.92428  Biso   1.000  N 
  N12      1.0000 0.05807  0.55816  0.90104  Biso   1.000  N 
  N13      1.0000 0.04923  0.61791  0.07572  Biso   1.000  N 
  N14      1.0000 0.05807  0.44184  0.40105  Biso   1.000  N 
  N15      1.0000 0.54923  0.11791  0.07572  Biso   1.000  N 
  N16      1.0000 0.54923  0.88209  0.57572  Biso   1.000  N 
