data_image0
_cell_length_a       24.7048
_cell_length_b       8.41841
_cell_length_c       6.86774
_cell_angle_alpha    89.9782
_cell_angle_beta     90.0754
_cell_angle_gamma    90.0058

_symmetry_space_group_name_H-M    "P 1"
_symmetry_int_tables_number       1

loop_
  _symmetry_equiv_pos_as_xyz
  'x, y, z'

loop_
  _atom_site_label
  _atom_site_occupancy
  _atom_site_fract_x
  _atom_site_fract_y
  _atom_site_fract_z
  _atom_site_thermal_displace_type
  _atom_site_B_iso_or_equiv
  _atom_site_type_symbol
  C1       1.0000 0.39372  0.88445  0.16721  Biso   1.000  C 
  C2       1.0000 0.28442  0.33787  0.38075  Biso   1.000  C 
  C3       1.0000 0.22866  0.35776  0.36720  Biso   1.000  C 
  C4       1.0000 0.60631  0.11573  0.83200  Biso   1.000  C 
  C5       1.0000 0.63466  0.19875  0.97771  Biso   1.000  C 
  C6       1.0000 0.69286  0.22965  0.98554  Biso   1.000  C 
  C7       1.0000 0.78445  0.16227  0.88080  Biso   1.000  C 
  C8       1.0000 0.72869  0.14248  0.86682  Biso   1.000  C 
  C9       1.0000 0.10628  0.61561  0.83287  Biso   1.000  C 
  C10      1.0000 0.09554  0.72148  0.12481  Biso   1.000  C 
  C11      1.0000 0.19287  0.72949  0.98613  Biso   1.000  C 
  C12      1.0000 0.22867  0.64233  0.86727  Biso   1.000  C 
  C13      1.0000 0.39373  0.11568  0.66713  Biso   1.000  C 
  C14      1.0000 0.40445  0.22165  0.37513  Biso   1.000  C 
  C15      1.0000 0.36534  0.19862  0.52141  Biso   1.000  C 
  C16      1.0000 0.30714  0.22954  0.51394  Biso   1.000  C 
  C17      1.0000 0.21560  0.16217  0.61930  Biso   1.000  C 
  C18      1.0000 0.27135  0.14228  0.63286  Biso   1.000  C 
  C19      1.0000 0.89367  0.61549  0.66785  Biso   1.000  C 
  C20      1.0000 0.13467  0.69852  0.97858  Biso   1.000  C 
  C21      1.0000 0.13468  0.30137  0.47864  Biso   1.000  C 
  C22      1.0000 0.28442  0.66227  0.88087  Biso   1.000  C 
  C23      1.0000 0.19288  0.27049  0.48610  Biso   1.000  C 
  C24      1.0000 0.90449  0.72151  0.37593  Biso   1.000  C 
  C25      1.0000 0.86532  0.69846  0.52203  Biso   1.000  C 
  C26      1.0000 0.80713  0.72943  0.51420  Biso   1.000  C 
  C27      1.0000 0.09557  0.27840  0.62496  Biso   1.000  C 
  C28      1.0000 0.10627  0.38420  0.33286  Biso   1.000  C 
  C29      1.0000 0.59550  0.22186  0.12376  Biso   1.000  C 
  C30      1.0000 0.90449  0.27820  0.87610  Biso   1.000  C 
  C31      1.0000 0.80712  0.27044  0.01422  Biso   1.000  C 
  C32      1.0000 0.86532  0.30127  0.02214  Biso   1.000  C 
  C33      1.0000 0.89367  0.38419  0.16794  Biso   1.000  C 
  C34      1.0000 0.27132  0.85769  0.13297  Biso   1.000  C 
  C35      1.0000 0.21557  0.83775  0.11935  Biso   1.000  C 
  C36      1.0000 0.30712  0.77055  0.01407  Biso   1.000  C 
  C37      1.0000 0.71553  0.33782  0.11894  Biso   1.000  C 
  C38      1.0000 0.69289  0.77056  0.48576  Biso   1.000  C 
  C39      1.0000 0.78448  0.83775  0.38084  Biso   1.000  C 
  C40      1.0000 0.72873  0.85772  0.36700  Biso   1.000  C 
  C41      1.0000 0.36533  0.80151  0.02156  Biso   1.000  C 
  C42      1.0000 0.40444  0.77849  0.87531  Biso   1.000  C 
  C43      1.0000 0.63469  0.80153  0.47793  Biso   1.000  C 
  C44      1.0000 0.77129  0.35762  0.13292  Biso   1.000  C 
  C45      1.0000 0.71553  0.66224  0.61912  Biso   1.000  C 
  C46      1.0000 0.60635  0.88458  0.33217  Biso   1.000  C 
  C47      1.0000 0.77128  0.64227  0.63297  Biso   1.000  C 
  C48      1.0000 0.59552  0.77837  0.62398  Biso   1.000  C 
  Co1      1.0000 0.99999  0.53516  0.25046  Biso   1.000  Co
  Co2      1.0000 0.50002  0.03544  0.24949  Biso   1.000  Co
  Co3      1.0000 0.50001  0.96469  0.74952  Biso   1.000  Co
  Co4      1.0000 1.00000  0.46457  0.75051  Biso   1.000  Co
  H1       1.0000 0.90038  0.22435  0.73312  Biso   1.000  H 
  H2       1.0000 0.59963  0.72444  0.76696  Biso   1.000  H 
  H3       1.0000 0.18930  0.90899  0.21251  Biso   1.000  H 
  H4       1.0000 0.68924  0.40910  0.21198  Biso   1.000  H 
  H5       1.0000 0.37980  0.92501  0.30851  Biso   1.000  H 
  H6       1.0000 0.37981  0.07514  0.80847  Biso   1.000  H 
  H7       1.0000 0.40029  0.27549  0.23214  Biso   1.000  H 
  H8       1.0000 0.28728  0.05454  0.73489  Biso   1.000  H 
  H9       1.0000 0.71286  0.94544  0.26483  Biso   1.000  H 
  H10      1.0000 0.81078  0.90900  0.28775  Biso   1.000  H 
  H11      1.0000 0.87969  0.57490  0.80910  Biso   1.000  H 
  H12      1.0000 0.90037  0.77537  0.23292  Biso   1.000  H 
  H13      1.0000 0.68923  0.59097  0.71219  Biso   1.000  H 
  H14      1.0000 0.18934  0.09084  0.71245  Biso   1.000  H 
  H15      1.0000 0.78715  0.55455  0.73513  Biso   1.000  H 
  H16      1.0000 0.12019  0.42468  0.19148  Biso   1.000  H 
  H17      1.0000 0.62033  0.92524  0.19096  Biso   1.000  H 
  H18      1.0000 0.81074  0.09100  0.78775  Biso   1.000  H 
  H19      1.0000 0.28724  0.94539  0.23501  Biso   1.000  H 
  H20      1.0000 0.09974  0.22463  0.76798  Biso   1.000  H 
  H21      1.0000 0.40027  0.72464  0.73236  Biso   1.000  H 
  H22      1.0000 0.31069  0.59101  0.78776  Biso   1.000  H 
  H23      1.0000 0.21276  0.55463  0.76522  Biso   1.000  H 
  H24      1.0000 0.78718  0.44524  0.23512  Biso   1.000  H 
  H25      1.0000 0.31068  0.40923  0.28763  Biso   1.000  H 
  H26      1.0000 0.62029  0.07511  0.69080  Biso   1.000  H 
  H27      1.0000 0.59961  0.27579  0.26669  Biso   1.000  H 
  H28      1.0000 0.87970  0.42475  0.30916  Biso   1.000  H 
  H29      1.0000 0.12022  0.57510  0.69158  Biso   1.000  H 
  H30      1.0000 0.09969  0.77530  0.26777  Biso   1.000  H 
  H31      1.0000 0.21274  0.44551  0.26517  Biso   1.000  H 
  H32      1.0000 0.71281  0.05487  0.76461  Biso   1.000  H 
  N1       1.0000 0.44501  0.08754  0.60898  Biso   1.000  N 
  N2       1.0000 0.44500  0.91258  0.10906  Biso   1.000  N 
  N3       1.0000 0.55502  0.08761  0.88993  Biso   1.000  N 
  N4       1.0000 0.95181  0.34707  0.92863  Biso   1.000  N 
  N5       1.0000 0.95180  0.65261  0.42848  Biso   1.000  N 
  N6       1.0000 0.94498  0.41229  0.11004  Biso   1.000  N 
  N7       1.0000 0.04823  0.34723  0.57257  Biso   1.000  N 
  N8       1.0000 0.45178  0.84737  0.92762  Biso   1.000  N 
  N9       1.0000 0.55505  0.91263  0.39006  Biso   1.000  N 
  N10      1.0000 0.45179  0.15275  0.42749  Biso   1.000  N 
  N11      1.0000 0.05500  0.58743  0.89098  Biso   1.000  N 
  N12      1.0000 0.04821  0.65258  0.07244  Biso   1.000  N 
  N13      1.0000 0.05499  0.41234  0.39101  Biso   1.000  N 
  N14      1.0000 0.54818  0.15292  0.07129  Biso   1.000  N 
  N15      1.0000 0.94497  0.58737  0.60994  Biso   1.000  N 
  N16      1.0000 0.54820  0.84728  0.57146  Biso   1.000  N 
