data_image0
_cell_length_a       24.7412
_cell_length_b       6.29573
_cell_length_c       6.43903
_cell_angle_alpha    90.0104
_cell_angle_beta     85.9671
_cell_angle_gamma    89.9862

_symmetry_space_group_name_H-M    "P 1"
_symmetry_int_tables_number       1

loop_
  _symmetry_equiv_pos_as_xyz
  'x, y, z'

loop_
  _atom_site_label
  _atom_site_occupancy
  _atom_site_fract_x
  _atom_site_fract_y
  _atom_site_fract_z
  _atom_site_thermal_displace_type
  _atom_site_B_iso_or_equiv
  _atom_site_type_symbol
  C1       1.0000 0.39107  0.85970  0.19804  Biso   1.000  C 
  C2       1.0000 0.23085  0.28950  0.30567  Biso   1.000  C 
  C3       1.0000 0.60855  0.14005  0.80576  Biso   1.000  C 
  C4       1.0000 0.63509  0.25499  0.95626  Biso   1.000  C 
  C5       1.0000 0.69353  0.26282  0.97467  Biso   1.000  C 
  C6       1.0000 0.78560  0.19882  0.83115  Biso   1.000  C 
  C7       1.0000 0.73045  0.21101  0.80621  Biso   1.000  C 
  C8       1.0000 0.10891  0.64043  0.80197  Biso   1.000  C 
  C9       1.0000 0.09292  0.81190  0.10064  Biso   1.000  C 
  C10      1.0000 0.19360  0.76334  0.97293  Biso   1.000  C 
  C11      1.0000 0.23081  0.71085  0.80564  Biso   1.000  C 
  C12      1.0000 0.40708  0.31118  0.39945  Biso   1.000  C 
  C13      1.0000 0.36477  0.25532  0.54728  Biso   1.000  C 
  C14      1.0000 0.30640  0.26305  0.52714  Biso   1.000  C 
  C15      1.0000 0.21411  0.19844  0.66766  Biso   1.000  C 
  C16      1.0000 0.26917  0.21066  0.69437  Biso   1.000  C 
  C17      1.0000 0.89147  0.64099  0.69426  Biso   1.000  C 
  C18      1.0000 0.13522  0.75589  0.95280  Biso   1.000  C 
  C19      1.0000 0.13526  0.24485  0.45276  Biso   1.000  C 
  C20      1.0000 0.28587  0.69835  0.83228  Biso   1.000  C 
  C21      1.0000 0.19363  0.23714  0.47292  Biso   1.000  C 
  C22      1.0000 0.39107  0.13979  0.69809  Biso   1.000  C 
  C23      1.0000 0.28591  0.30175  0.33238  Biso   1.000  C 
  C24      1.0000 0.90697  0.81123  0.39476  Biso   1.000  C 
  C25      1.0000 0.86489  0.75585  0.54378  Biso   1.000  C 
  C26      1.0000 0.80646  0.76331  0.52532  Biso   1.000  C 
  C27      1.0000 0.10895  0.36035  0.30196  Biso   1.000  C 
  C28      1.0000 0.59301  0.31034  0.10532  Biso   1.000  C 
  C29      1.0000 0.90702  0.18952  0.89468  Biso   1.000  C 
  C30      1.0000 0.80649  0.23699  0.02523  Biso   1.000  C 
  C31      1.0000 0.86493  0.24484  0.04369  Biso   1.000  C 
  C32      1.0000 0.89147  0.35982  0.19419  Biso   1.000  C 
  C33      1.0000 0.26916  0.78935  0.19435  Biso   1.000  C 
  C34      1.0000 0.21410  0.80184  0.16770  Biso   1.000  C 
  C35      1.0000 0.30637  0.73685  0.02704  Biso   1.000  C 
  C36      1.0000 0.71443  0.30100  0.16875  Biso   1.000  C 
  C37      1.0000 0.69353  0.73654  0.47470  Biso   1.000  C 
  C38      1.0000 0.73041  0.78864  0.30627  Biso   1.000  C 
  C39      1.0000 0.36475  0.74427  0.04720  Biso   1.000  C 
  C40      1.0000 0.40704  0.68821  0.89936  Biso   1.000  C 
  C41      1.0000 0.63509  0.74401  0.45623  Biso   1.000  C 
  C42      1.0000 0.76958  0.28881  0.19369  Biso   1.000  C 
  C43      1.0000 0.71444  0.69854  0.66878  Biso   1.000  C 
  C44      1.0000 0.60852  0.85889  0.30574  Biso   1.000  C 
  C45      1.0000 0.76958  0.71120  0.69374  Biso   1.000  C 
  C46      1.0000 0.59302  0.68863  0.60527  Biso   1.000  C 
  C47      1.0000 0.09295  0.18895  0.60058  Biso   1.000  C 
  C48      1.0000 0.78555  0.80130  0.33124  Biso   1.000  C 
  Co1      1.0000 0.00011  0.55832  0.24733  Biso   1.000  Co
  Co2      1.0000 0.49990  0.05748  0.25267  Biso   1.000  Co
  Co3      1.0000 0.49988  0.94165  0.75269  Biso   1.000  Co
  Co4      1.0000 0.00010  0.44250  0.74734  Biso   1.000  Co
  H1       1.0000 0.28335  0.18008  0.84796  Biso   1.000  H 
  H2       1.0000 0.18623  0.16168  0.80127  Biso   1.000  H 
  H3       1.0000 0.68683  0.66199  0.80326  Biso   1.000  H 
  H4       1.0000 0.90546  0.89785  0.24937  Biso   1.000  H 
  H5       1.0000 0.87475  0.56743  0.83677  Biso   1.000  H 
  H6       1.0000 0.81316  0.83784  0.19675  Biso   1.000  H 
  H7       1.0000 0.71589  0.81863  0.15311  Biso   1.000  H 
  H8       1.0000 0.90555  0.10287  0.74927  Biso   1.000  H 
  H9       1.0000 0.37412  0.06571  0.83996  Biso   1.000  H 
  H10      1.0000 0.37411  0.93388  0.33990  Biso   1.000  H 
  H11      1.0000 0.68680  0.33732  0.30328  Biso   1.000  H 
  H12      1.0000 0.18623  0.83867  0.30138  Biso   1.000  H 
  H13      1.0000 0.59452  0.60200  0.75065  Biso   1.000  H 
  H14      1.0000 0.12590  0.43446  0.16009  Biso   1.000  H 
  H15      1.0000 0.78409  0.68119  0.84690  Biso   1.000  H 
  H16      1.0000 0.40582  0.39826  0.25422  Biso   1.000  H 
  H17      1.0000 0.62524  0.93244  0.16323  Biso   1.000  H 
  H18      1.0000 0.78408  0.31896  0.34687  Biso   1.000  H 
  H19      1.0000 0.21667  0.32012  0.15206  Biso   1.000  H 
  H20      1.0000 0.09419  0.89898  0.24588  Biso   1.000  H 
  H21      1.0000 0.12587  0.56627  0.66012  Biso   1.000  H 
  H22      1.0000 0.87473  0.43335  0.33672  Biso   1.000  H 
  H23      1.0000 0.59449  0.39700  0.25071  Biso   1.000  H 
  H24      1.0000 0.62527  0.06654  0.66320  Biso   1.000  H 
  H25      1.0000 0.71595  0.18086  0.65304  Biso   1.000  H 
  H26      1.0000 0.21661  0.68041  0.65203  Biso   1.000  H 
  H27      1.0000 0.31374  0.66154  0.69862  Biso   1.000  H 
  H28      1.0000 0.40576  0.60113  0.75411  Biso   1.000  H 
  H29      1.0000 0.09422  0.10188  0.74579  Biso   1.000  H 
  H30      1.0000 0.28336  0.81981  0.34796  Biso   1.000  H 
  H31      1.0000 0.81323  0.16249  0.69662  Biso   1.000  H 
  H32      1.0000 0.31380  0.33855  0.19877  Biso   1.000  H 
  N1       1.0000 0.45430  0.77315  0.95388  Biso   1.000  N 
  N2       1.0000 0.44413  0.11979  0.63859  Biso   1.000  N 
  N3       1.0000 0.44413  0.87943  0.13858  Biso   1.000  N 
  N4       1.0000 0.55557  0.11991  0.86646  Biso   1.000  N 
  N5       1.0000 0.95435  0.27445  0.94835  Biso   1.000  N 
  N6       1.0000 0.94444  0.38002  0.13356  Biso   1.000  N 
  N7       1.0000 0.04571  0.27404  0.54610  Biso   1.000  N 
  N8       1.0000 0.05585  0.62061  0.86143  Biso   1.000  N 
  N9       1.0000 0.55555  0.87899  0.36643  Biso   1.000  N 
  N10      1.0000 0.45432  0.22602  0.45394  Biso   1.000  N 
  N11      1.0000 0.04567  0.72689  0.04614  Biso   1.000  N 
  N12      1.0000 0.05588  0.38029  0.36143  Biso   1.000  N 
  N13      1.0000 0.54567  0.22545  0.05166  Biso   1.000  N 
  N14      1.0000 0.94444  0.62090  0.63359  Biso   1.000  N 
  N15      1.0000 0.95433  0.72642  0.44839  Biso   1.000  N 
  N16      1.0000 0.54566  0.77348  0.55162  Biso   1.000  N 
