data_image0
_cell_length_a       23.2563
_cell_length_b       12.9313
_cell_length_c       6.46552
_cell_angle_alpha    89.9995
_cell_angle_beta     97.8275
_cell_angle_gamma    89.9995

_symmetry_space_group_name_H-M    "P 1"
_symmetry_int_tables_number       1

loop_
  _symmetry_equiv_pos_as_xyz
  'x, y, z'

loop_
  _atom_site_label
  _atom_site_occupancy
  _atom_site_fract_x
  _atom_site_fract_y
  _atom_site_fract_z
  _atom_site_thermal_displace_type
  _atom_site_B_iso_or_equiv
  _atom_site_type_symbol
  C1       1.0000 0.38845  0.91882  0.14589  Biso   1.000  C 
  C2       1.0000 0.77542  0.69674  0.67547  Biso   1.000  C 
  C3       1.0000 0.09636  0.33045  0.63506  Biso   1.000  C 
  C4       1.0000 0.11155  0.41883  0.35409  Biso   1.000  C 
  C5       1.0000 0.59636  0.16956  0.13507  Biso   1.000  C 
  C6       1.0000 0.90364  0.33045  0.86493  Biso   1.000  C 
  C7       1.0000 0.80579  0.29591  0.00183  Biso   1.000  C 
  C8       1.0000 0.86255  0.34444  0.00380  Biso   1.000  C 
  C9       1.0000 0.88846  0.41883  0.14591  Biso   1.000  C 
  C10      1.0000 0.27542  0.80326  0.17546  Biso   1.000  C 
  C11      1.0000 0.22103  0.75856  0.17379  Biso   1.000  C 
  C12      1.0000 0.30579  0.79589  0.00183  Biso   1.000  C 
  C13      1.0000 0.61155  0.91882  0.35410  Biso   1.000  C 
  C14      1.0000 0.72103  0.25856  0.17381  Biso   1.000  C 
  C15      1.0000 0.59635  0.83045  0.63506  Biso   1.000  C 
  C16      1.0000 0.69421  0.79589  0.49817  Biso   1.000  C 
  C17      1.0000 0.77897  0.75855  0.32621  Biso   1.000  C 
  C18      1.0000 0.72458  0.80327  0.32455  Biso   1.000  C 
  C19      1.0000 0.36255  0.84443  0.00380  Biso   1.000  C 
  C20      1.0000 0.40364  0.83045  0.86493  Biso   1.000  C 
  C21      1.0000 0.63745  0.84442  0.49620  Biso   1.000  C 
  C22      1.0000 0.77543  0.30327  0.17548  Biso   1.000  C 
  C23      1.0000 0.72103  0.74144  0.67380  Biso   1.000  C 
  C24      1.0000 0.80579  0.70410  0.50184  Biso   1.000  C 
  C25      1.0000 0.86255  0.65557  0.50381  Biso   1.000  C 
  C26      1.0000 0.90364  0.66956  0.36495  Biso   1.000  C 
  C27      1.0000 0.13745  0.34443  0.49618  Biso   1.000  C 
  C28      1.0000 0.19421  0.29589  0.49815  Biso   1.000  C 
  C29      1.0000 0.27897  0.25855  0.32619  Biso   1.000  C 
  C30      1.0000 0.22458  0.30326  0.32452  Biso   1.000  C 
  C31      1.0000 0.61155  0.08118  0.85411  Biso   1.000  C 
  C32      1.0000 0.63745  0.15557  0.99620  Biso   1.000  C 
  C33      1.0000 0.69421  0.20412  0.99817  Biso   1.000  C 
  C34      1.0000 0.77897  0.24145  0.82621  Biso   1.000  C 
  C35      1.0000 0.72458  0.19674  0.82455  Biso   1.000  C 
  C36      1.0000 0.11155  0.58118  0.85410  Biso   1.000  C 
  C37      1.0000 0.09636  0.66955  0.13507  Biso   1.000  C 
  C38      1.0000 0.19421  0.70410  0.99817  Biso   1.000  C 
  C39      1.0000 0.27897  0.74145  0.82620  Biso   1.000  C 
  C40      1.0000 0.22457  0.69673  0.82454  Biso   1.000  C 
  C41      1.0000 0.38845  0.08117  0.64590  Biso   1.000  C 
  C42      1.0000 0.40364  0.16955  0.36493  Biso   1.000  C 
  C43      1.0000 0.36255  0.15556  0.50378  Biso   1.000  C 
  C44      1.0000 0.30579  0.20409  0.50181  Biso   1.000  C 
  C45      1.0000 0.22103  0.24145  0.67378  Biso   1.000  C 
  C46      1.0000 0.27543  0.19673  0.67545  Biso   1.000  C 
  C47      1.0000 0.88846  0.58117  0.64591  Biso   1.000  C 
  C48      1.0000 0.13745  0.65557  0.99620  Biso   1.000  C 
  Co1      1.0000 1.00000  0.46563  0.75000  Biso   1.000  Co
  Co2      1.0000 0.50001  0.96563  0.75000  Biso   1.000  Co
  Co3      1.0000 0.50000  0.03436  0.24999  Biso   1.000  Co
  Co4      1.0000 1.00000  0.53437  0.25001  Biso   1.000  Co
  H1       1.0000 0.70504  0.15580  0.68488  Biso   1.000  H 
  H2       1.0000 0.09777  0.71927  0.27103  Biso   1.000  H 
  H3       1.0000 0.12763  0.54623  0.72042  Biso   1.000  H 
  H4       1.0000 0.87237  0.45378  0.27957  Biso   1.000  H 
  H5       1.0000 0.59776  0.21928  0.27101  Biso   1.000  H 
  H6       1.0000 0.62764  0.04623  0.72045  Biso   1.000  H 
  H7       1.0000 0.80069  0.23500  0.68743  Biso   1.000  H 
  H8       1.0000 0.30069  0.26499  0.18739  Biso   1.000  H 
  H9       1.0000 0.79496  0.34422  0.31514  Biso   1.000  H 
  H10      1.0000 0.20504  0.65579  0.68486  Biso   1.000  H 
  H11      1.0000 0.30069  0.73499  0.68742  Biso   1.000  H 
  H12      1.0000 0.40223  0.78072  0.72899  Biso   1.000  H 
  H13      1.0000 0.09777  0.28072  0.77102  Biso   1.000  H 
  H14      1.0000 0.29496  0.84421  0.31514  Biso   1.000  H 
  H15      1.0000 0.62763  0.95377  0.22044  Biso   1.000  H 
  H16      1.0000 0.20504  0.34420  0.18484  Biso   1.000  H 
  H17      1.0000 0.79496  0.65579  0.81514  Biso   1.000  H 
  H18      1.0000 0.59776  0.78072  0.77099  Biso   1.000  H 
  H19      1.0000 0.19931  0.76501  0.31258  Biso   1.000  H 
  H20      1.0000 0.69931  0.26502  0.31260  Biso   1.000  H 
  H21      1.0000 0.37237  0.95377  0.27955  Biso   1.000  H 
  H22      1.0000 0.37237  0.04622  0.77958  Biso   1.000  H 
  H23      1.0000 0.40223  0.21927  0.22896  Biso   1.000  H 
  H24      1.0000 0.19931  0.23500  0.81257  Biso   1.000  H 
  H25      1.0000 0.90223  0.28074  0.72897  Biso   1.000  H 
  H26      1.0000 0.12763  0.45377  0.22042  Biso   1.000  H 
  H27      1.0000 0.70503  0.84421  0.18486  Biso   1.000  H 
  H28      1.0000 0.80069  0.76501  0.18744  Biso   1.000  H 
  H29      1.0000 0.87237  0.54622  0.77957  Biso   1.000  H 
  H30      1.0000 0.90224  0.71928  0.22900  Biso   1.000  H 
  H31      1.0000 0.69931  0.73498  0.81258  Biso   1.000  H 
  H32      1.0000 0.29496  0.15579  0.81514  Biso   1.000  H 
  N1       1.0000 0.05938  0.44644  0.40553  Biso   1.000  N 
  N2       1.0000 0.04977  0.60835  0.07869  Biso   1.000  N 
  N3       1.0000 0.05938  0.55357  0.90553  Biso   1.000  N 
  N4       1.0000 0.45024  0.89165  0.92131  Biso   1.000  N 
  N5       1.0000 0.44062  0.05356  0.59447  Biso   1.000  N 
  N6       1.0000 0.45023  0.10835  0.42130  Biso   1.000  N 
  N7       1.0000 0.55938  0.94643  0.40553  Biso   1.000  N 
  N8       1.0000 0.54976  0.10836  0.07869  Biso   1.000  N 
  N9       1.0000 0.04977  0.39165  0.57869  Biso   1.000  N 
  N10      1.0000 0.94062  0.44644  0.09446  Biso   1.000  N 
  N11      1.0000 0.94062  0.55356  0.59446  Biso   1.000  N 
  N12      1.0000 0.95024  0.60836  0.42131  Biso   1.000  N 
  N13      1.0000 0.95023  0.39165  0.92131  Biso   1.000  N 
  N14      1.0000 0.55939  0.05356  0.90554  Biso   1.000  N 
  N15      1.0000 0.44062  0.94644  0.09446  Biso   1.000  N 
  N16      1.0000 0.54976  0.89164  0.57868  Biso   1.000  N 
