data_image0
_cell_length_a       33.0632
_cell_length_b       11.7439
_cell_length_c       5.31187
_cell_angle_alpha    89.6192
_cell_angle_beta     90.7227
_cell_angle_gamma    89.6496

_symmetry_space_group_name_H-M    "P 1"
_symmetry_int_tables_number       1

loop_
  _symmetry_equiv_pos_as_xyz
  'x, y, z'

loop_
  _atom_site_label
  _atom_site_occupancy
  _atom_site_fract_x
  _atom_site_fract_y
  _atom_site_fract_z
  _atom_site_thermal_displace_type
  _atom_site_B_iso_or_equiv
  _atom_site_type_symbol
  C1       1.0000 0.29815  0.79323  0.57299  Biso   1.000  C 
  C2       1.0000 0.93565  0.34439  0.63821  Biso   1.000  C 
  C3       1.0000 0.10609  0.69712  0.61717  Biso   1.000  C 
  C4       1.0000 0.08726  0.43145  0.29172  Biso   1.000  C 
  C5       1.0000 0.58731  0.93179  0.29176  Biso   1.000  C 
  C6       1.0000 0.77486  0.23049  0.74187  Biso   1.000  C 
  C7       1.0000 0.23372  0.71534  0.70092  Biso   1.000  C 
  C8       1.0000 0.73351  0.21679  0.70146  Biso   1.000  C 
  C9       1.0000 0.21452  0.76651  0.49112  Biso   1.000  C 
  C10      1.0000 0.10551  0.35676  0.12151  Biso   1.000  C 
  C11      1.0000 0.40656  0.86319  0.44793  Biso   1.000  C 
  C12      1.0000 0.57571  0.83352  0.93886  Biso   1.000  C 
  C13      1.0000 0.43584  0.84381  0.63781  Biso   1.000  C 
  C14      1.0000 0.42492  0.93612  0.27349  Biso   1.000  C 
  C15      1.0000 0.27894  0.84440  0.36322  Biso   1.000  C 
  C16      1.0000 0.23759  0.83078  0.32282  Biso   1.000  C 
  C17      1.0000 0.73734  0.33255  0.32383  Biso   1.000  C 
  C18      1.0000 0.77868  0.34627  0.36427  Biso   1.000  C 
  C19      1.0000 0.79791  0.29495  0.57381  Biso   1.000  C 
  C20      1.0000 0.34202  0.81044  0.63330  Biso   1.000  C 
  C21      1.0000 0.84180  0.31187  0.63400  Biso   1.000  C 
  C22      1.0000 0.93702  0.72751  0.12658  Biso   1.000  C 
  C23      1.0000 0.43693  0.22726  0.12621  Biso   1.000  C 
  C24      1.0000 0.90719  0.70436  0.94322  Biso   1.000  C 
  C25      1.0000 0.40710  0.20399  0.94286  Biso   1.000  C 
  C26      1.0000 0.71429  0.26807  0.49185  Biso   1.000  C 
  C27      1.0000 0.90638  0.36399  0.44836  Biso   1.000  C 
  C28      1.0000 0.57663  0.21704  0.42780  Biso   1.000  C 
  C29      1.0000 0.07564  0.33333  0.93862  Biso   1.000  C 
  C30      1.0000 0.84250  0.75541  0.13077  Biso   1.000  C 
  C31      1.0000 0.34242  0.25509  0.13033  Biso   1.000  C 
  C32      1.0000 0.60558  0.85706  0.12170  Biso   1.000  C 
  C33      1.0000 0.58764  0.12480  0.79206  Biso   1.000  C 
  C34      1.0000 0.08774  0.62432  0.79193  Biso   1.000  C 
  C35      1.0000 0.23795  0.22830  0.82530  Biso   1.000  C 
  C36      1.0000 0.77956  0.71746  0.86497  Biso   1.000  C 
  C37      1.0000 0.27948  0.21706  0.86470  Biso   1.000  C 
  C38      1.0000 0.79839  0.77019  0.07185  Biso   1.000  C 
  C39      1.0000 0.60594  0.19782  0.61750  Biso   1.000  C 
  C40      1.0000 0.07678  0.71654  0.42757  Biso   1.000  C 
  C41      1.0000 0.29830  0.26985  0.07147  Biso   1.000  C 
  C42      1.0000 0.77478  0.83366  0.23832  Biso   1.000  C 
  C43      1.0000 0.73804  0.72870  0.82561  Biso   1.000  C 
  C44      1.0000 0.92482  0.43667  0.27378  Biso   1.000  C 
  C45      1.0000 0.23318  0.34468  0.19839  Biso   1.000  C 
  C46      1.0000 0.27470  0.33341  0.23784  Biso   1.000  C 
  C47      1.0000 0.73325  0.84493  0.19890  Biso   1.000  C 
  C48      1.0000 0.71442  0.79212  0.99216  Biso   1.000  C 
  C49      1.0000 0.21434  0.29180  0.99172  Biso   1.000  C 
  C50      1.0000 0.67029  0.80659  0.93349  Biso   1.000  C 
  C51      1.0000 0.17021  0.30633  0.93312  Biso   1.000  C 
  C52      1.0000 0.17064  0.74941  0.43114  Biso   1.000  C 
  C53      1.0000 0.67043  0.25081  0.43172  Biso   1.000  C 
  C54      1.0000 0.27508  0.72896  0.74130  Biso   1.000  C 
  C55      1.0000 0.42536  0.12912  0.77309  Biso   1.000  C 
  C56      1.0000 0.92541  0.62948  0.77335  Biso   1.000  C 
  Co1      1.0000 0.00673  0.49217  0.79601  Biso   1.000  Co
  Co2      1.0000 0.50674  0.99208  0.79583  Biso   1.000  Co
  Co3      1.0000 0.50583  0.06833  0.27029  Biso   1.000  Co
  Co4      1.0000 0.00585  0.56821  0.27033  Biso   1.000  Co
  H1       1.0000 0.72229  0.37181  0.16121  Biso   1.000  H 
  H2       1.0000 0.29009  0.68978  0.90416  Biso   1.000  H 
  H3       1.0000 0.71636  0.16477  0.83282  Biso   1.000  H 
  H4       1.0000 0.43526  0.27866  0.29432  Biso   1.000  H 
  H5       1.0000 0.71563  0.89633  0.32861  Biso   1.000  H 
  H6       1.0000 0.29611  0.89629  0.23173  Biso   1.000  H 
  H7       1.0000 0.21654  0.66354  0.83254  Biso   1.000  H 
  H8       1.0000 0.93539  0.77887  0.29479  Biso   1.000  H 
  H9       1.0000 0.79584  0.39829  0.23296  Biso   1.000  H 
  H10      1.0000 0.91285  0.47192  0.09874  Biso   1.000  H 
  H11      1.0000 0.59969  0.08965  0.96699  Biso   1.000  H 
  H12      1.0000 0.15813  0.74041  0.81200  Biso   1.000  H 
  H13      1.0000 0.15820  0.31566  0.31455  Biso   1.000  H 
  H14      1.0000 0.65825  0.81600  0.31486  Biso   1.000  H 
  H15      1.0000 0.35453  0.24556  0.74903  Biso   1.000  H 
  H16      1.0000 0.85461  0.74602  0.74947  Biso   1.000  H 
  H17      1.0000 0.21556  0.39617  0.32798  Biso   1.000  H 
  H18      1.0000 0.07853  0.76600  0.25537  Biso   1.000  H 
  H19      1.0000 0.57834  0.26658  0.25569  Biso   1.000  H 
  H20      1.0000 0.22256  0.86997  0.16007  Biso   1.000  H 
  H21      1.0000 0.65792  0.24145  0.81258  Biso   1.000  H 
  H22      1.0000 0.59982  0.97003  0.46077  Biso   1.000  H 
  H23      1.0000 0.78991  0.19123  0.90453  Biso   1.000  H 
  H24      1.0000 0.22322  0.18777  0.66490  Biso   1.000  H 
  H25      1.0000 0.41288  0.09100  0.60391  Biso   1.000  H 
  H26      1.0000 0.28943  0.37395  0.39824  Biso   1.000  H 
  H27      1.0000 0.29710  0.16562  0.73500  Biso   1.000  H 
  H28      1.0000 0.07727  0.28200  0.77038  Biso   1.000  H 
  H29      1.0000 0.91291  0.59144  0.60414  Biso   1.000  H 
  H30      1.0000 0.09976  0.58919  0.96693  Biso   1.000  H 
  H31      1.0000 0.79719  0.66608  0.73519  Biso   1.000  H 
  H32      1.0000 0.09977  0.46959  0.46079  Biso   1.000  H 
  H33      1.0000 0.43407  0.79425  0.80985  Biso   1.000  H 
  H34      1.0000 0.72330  0.68820  0.66518  Biso   1.000  H 
  H35      1.0000 0.41293  0.97133  0.09845  Biso   1.000  H 
  H36      1.0000 0.35459  0.81976  0.25251  Biso   1.000  H 
  H37      1.0000 0.85432  0.32117  0.25319  Biso   1.000  H 
  H38      1.0000 0.78950  0.87414  0.39881  Biso   1.000  H 
  H39      1.0000 0.93382  0.29490  0.81033  Biso   1.000  H 
  H40      1.0000 0.57735  0.78212  0.77072  Biso   1.000  H 
  N1       1.0000 0.36671  0.24011  0.92702  Biso   1.000  N 
  N2       1.0000 0.86622  0.32735  0.43154  Biso   1.000  N 
  N3       1.0000 0.97102  0.66978  0.06615  Biso   1.000  N 
  N4       1.0000 0.47094  0.16959  0.06590  Biso   1.000  N 
  N5       1.0000 0.54167  0.89091  0.99970  Biso   1.000  N 
  N6       1.0000 0.86679  0.74054  0.92746  Biso   1.000  N 
  N7       1.0000 0.46373  0.10916  0.85106  Biso   1.000  N 
  N8       1.0000 0.96378  0.60942  0.85122  Biso   1.000  N 
  N9       1.0000 0.36645  0.82610  0.43092  Biso   1.000  N 
  N10      1.0000 0.14596  0.32099  0.13667  Biso   1.000  N 
  N11      1.0000 0.54890  0.95143  0.21441  Biso   1.000  N 
  N12      1.0000 0.64603  0.82132  0.13697  Biso   1.000  N 
  N13      1.0000 0.05001  0.60119  0.70830  Biso   1.000  N 
  N14      1.0000 0.46949  0.90247  0.57788  Biso   1.000  N 
  N15      1.0000 0.46262  0.95930  0.35750  Biso   1.000  N 
  N16      1.0000 0.96936  0.40272  0.57814  Biso   1.000  N 
  N17      1.0000 0.96255  0.45953  0.35767  Biso   1.000  N 
  N18      1.0000 0.04884  0.45117  0.21442  Biso   1.000  N 
  N19      1.0000 0.04160  0.39074  0.99956  Biso   1.000  N 
  N20      1.0000 0.54302  0.15821  0.48791  Biso   1.000  N 
  N21      1.0000 0.64603  0.23508  0.63425  Biso   1.000  N 
  N22      1.0000 0.04312  0.65798  0.48787  Biso   1.000  N 
  N23      1.0000 0.54995  0.10139  0.70827  Biso   1.000  N 
  N24      1.0000 0.14623  0.73407  0.63371  Biso   1.000  N 
  O1       1.0000 0.85452  0.31360  0.85627  Biso   1.000  O 
  O2       1.0000 0.85552  0.75456  0.35230  Biso   1.000  O 
  O3       1.0000 0.65721  0.80723  0.71205  Biso   1.000  O 
  O4       1.0000 0.15713  0.30704  0.71169  Biso   1.000  O 
  O5       1.0000 0.65769  0.24893  0.20949  Biso   1.000  O 
  O6       1.0000 0.15791  0.74732  0.20892  Biso   1.000  O 
  O7       1.0000 0.35472  0.81233  0.85558  Biso   1.000  O 
  O8       1.0000 0.35545  0.25437  0.35184  Biso   1.000  O 
