data_image0
_cell_length_a       33.5958
_cell_length_b       6.60112
_cell_length_c       7.07736
_cell_angle_alpha    86.8413
_cell_angle_beta     91.2552
_cell_angle_gamma    92.6712

_symmetry_space_group_name_H-M    "P 1"
_symmetry_int_tables_number       1

loop_
  _symmetry_equiv_pos_as_xyz
  'x, y, z'

loop_
  _atom_site_label
  _atom_site_occupancy
  _atom_site_fract_x
  _atom_site_fract_y
  _atom_site_fract_z
  _atom_site_thermal_displace_type
  _atom_site_B_iso_or_equiv
  _atom_site_type_symbol
  C1       1.0000 0.29705  0.78933  0.58099  Biso   1.000  C 
  C2       1.0000 0.92954  0.35192  0.69981  Biso   1.000  C 
  C3       1.0000 0.58293  0.20980  0.36455  Biso   1.000  C 
  C4       1.0000 0.07704  0.28489  0.19346  Biso   1.000  C 
  C5       1.0000 0.57697  0.78574  0.19188  Biso   1.000  C 
  C6       1.0000 0.76827  0.32531  0.71490  Biso   1.000  C 
  C7       1.0000 0.22802  0.81657  0.66683  Biso   1.000  C 
  C8       1.0000 0.72793  0.31690  0.66617  Biso   1.000  C 
  C9       1.0000 0.21551  0.77219  0.48248  Biso   1.000  C 
  C10      1.0000 0.10511  0.30220  0.04931  Biso   1.000  C 
  C11      1.0000 0.58441  0.88300  0.88853  Biso   1.000  C 
  C12      1.0000 0.42962  0.85274  0.69861  Biso   1.000  C 
  C13      1.0000 0.43504  0.74572  0.40795  Biso   1.000  C 
  C14      1.0000 0.10477  0.80294  0.51066  Biso   1.000  C 
  C15      1.0000 0.24417  0.73610  0.34853  Biso   1.000  C 
  C16      1.0000 0.74430  0.23766  0.34780  Biso   1.000  C 
  C17      1.0000 0.28455  0.74506  0.39659  Biso   1.000  C 
  C18      1.0000 0.78464  0.24603  0.39656  Biso   1.000  C 
  C19      1.0000 0.79702  0.28942  0.58133  Biso   1.000  C 
  C20      1.0000 0.33990  0.81548  0.63925  Biso   1.000  C 
  C21      1.0000 0.83985  0.31492  0.64020  Biso   1.000  C 
  C22      1.0000 0.92818  0.67770  0.17708  Biso   1.000  C 
  C23      1.0000 0.42825  0.17914  0.17591  Biso   1.000  C 
  C24      1.0000 0.90748  0.75748  0.01766  Biso   1.000  C 
  C25      1.0000 0.40750  0.25853  0.01650  Biso   1.000  C 
  C26      1.0000 0.71555  0.27343  0.48143  Biso   1.000  C 
  C27      1.0000 0.90775  0.25718  0.55536  Biso   1.000  C 
  C28      1.0000 0.08287  0.70879  0.36622  Biso   1.000  C 
  C29      1.0000 0.40781  0.75810  0.55416  Biso   1.000  C 
  C30      1.0000 0.84093  0.83701  0.12210  Biso   1.000  C 
  C31      1.0000 0.34094  0.33728  0.12132  Biso   1.000  C 
  C32      1.0000 0.08436  0.38143  0.88986  Biso   1.000  C 
  C33      1.0000 0.57767  0.31612  0.65558  Biso   1.000  C 
  C34      1.0000 0.07765  0.81451  0.65745  Biso   1.000  C 
  C35      1.0000 0.24208  0.29114  0.84591  Biso   1.000  C 
  C36      1.0000 0.78280  0.81944  0.88466  Biso   1.000  C 
  C37      1.0000 0.28272  0.31971  0.88428  Biso   1.000  C 
  C38      1.0000 0.79743  0.80913  0.07229  Biso   1.000  C 
  C39      1.0000 0.60481  0.30429  0.50888  Biso   1.000  C 
  C40      1.0000 0.29744  0.30901  0.07176  Biso   1.000  C 
  C41      1.0000 0.77042  0.77079  0.21974  Biso   1.000  C 
  C42      1.0000 0.74217  0.79116  0.84594  Biso   1.000  C 
  C43      1.0000 0.93502  0.24435  0.40936  Biso   1.000  C 
  C44      1.0000 0.60510  0.80337  0.04800  Biso   1.000  C 
  C45      1.0000 0.27050  0.26993  0.21944  Biso   1.000  C 
  C46      1.0000 0.72979  0.74247  0.18101  Biso   1.000  C 
  C47      1.0000 0.22986  0.24129  0.18106  Biso   1.000  C 
  C48      1.0000 0.71516  0.75260  0.99341  Biso   1.000  C 
  C49      1.0000 0.21515  0.25186  0.99360  Biso   1.000  C 
  C50      1.0000 0.67166  0.72388  0.94381  Biso   1.000  C 
  C51      1.0000 0.17164  0.22311  0.94436  Biso   1.000  C 
  C52      1.0000 0.17264  0.74583  0.42472  Biso   1.000  C 
  C53      1.0000 0.67271  0.24767  0.42290  Biso   1.000  C 
  C54      1.0000 0.26839  0.82551  0.71488  Biso   1.000  C 
  C55      1.0000 0.43558  0.27584  0.87237  Biso   1.000  C 
  C56      1.0000 0.93560  0.77495  0.87372  Biso   1.000  C 
  Co1      1.0000 0.50703  0.06250  0.77988  Biso   1.000  Co
  Co2      1.0000 0.00700  0.56096  0.78148  Biso   1.000  Co
  Co3      1.0000 0.00552  0.49816  0.28563  Biso   1.000  Co
  Co4      1.0000 0.50557  0.99943  0.28411  Biso   1.000  Co
  H1       1.0000 0.80649  0.22131  0.28961  Biso   1.000  H 
  H2       1.0000 0.73437  0.20336  0.20506  Biso   1.000  H 
  H3       1.0000 0.23415  0.70116  0.20607  Biso   1.000  H 
  H4       1.0000 0.27841  0.86053  0.85731  Biso   1.000  H 
  H5       1.0000 0.70609  0.34182  0.77311  Biso   1.000  H 
  H6       1.0000 0.70948  0.70899  0.29784  Biso   1.000  H 
  H7       1.0000 0.20624  0.84177  0.77397  Biso   1.000  H 
  H8       1.0000 0.91778  0.64181  0.31947  Biso   1.000  H 
  H9       1.0000 0.41791  0.14349  0.31842  Biso   1.000  H 
  H10      1.0000 0.93048  0.18335  0.27074  Biso   1.000  H 
  H11      1.0000 0.15573  0.94983  0.61874  Biso   1.000  H 
  H12      1.0000 0.15863  0.37088  0.18011  Biso   1.000  H 
  H13      1.0000 0.65859  0.87251  0.17890  Biso   1.000  H 
  H14      1.0000 0.35402  0.19090  0.88487  Biso   1.000  H 
  H15      1.0000 0.85399  0.68994  0.88602  Biso   1.000  H 
  H16      1.0000 0.20962  0.20724  0.29804  Biso   1.000  H 
  H17      1.0000 0.09233  0.67349  0.22733  Biso   1.000  H 
  H18      1.0000 0.59240  0.17431  0.22572  Biso   1.000  H 
  H19      1.0000 0.58230  0.37681  0.79427  Biso   1.000  H 
  H20      1.0000 0.30633  0.72001  0.28941  Biso   1.000  H 
  H21      1.0000 0.30296  0.35370  0.76724  Biso   1.000  H 
  H22      1.0000 0.08073  0.23265  0.34071  Biso   1.000  H 
  H23      1.0000 0.65574  0.45070  0.61766  Biso   1.000  H 
  H24      1.0000 0.08229  0.87477  0.79631  Biso   1.000  H 
  H25      1.0000 0.23061  0.30100  0.70065  Biso   1.000  H 
  H26      1.0000 0.77821  0.35968  0.85761  Biso   1.000  H 
  H27      1.0000 0.28197  0.26009  0.36469  Biso   1.000  H 
  H28      1.0000 0.09473  0.41716  0.74740  Biso   1.000  H 
  H29      1.0000 0.93198  0.82765  0.72657  Biso   1.000  H 
  H30      1.0000 0.80310  0.85285  0.76778  Biso   1.000  H 
  H31      1.0000 0.43189  0.32820  0.72517  Biso   1.000  H 
  H32      1.0000 0.42007  0.88875  0.83714  Biso   1.000  H 
  H33      1.0000 0.73076  0.80067  0.70056  Biso   1.000  H 
  H34      1.0000 0.43048  0.68490  0.26927  Biso   1.000  H 
  H35      1.0000 0.35690  0.61123  0.44553  Biso   1.000  H 
  H36      1.0000 0.85683  0.11086  0.44633  Biso   1.000  H 
  H37      1.0000 0.78181  0.76126  0.36513  Biso   1.000  H 
  H38      1.0000 0.59483  0.91901  0.74620  Biso   1.000  H 
  H39      1.0000 0.91996  0.38819  0.83820  Biso   1.000  H 
  H40      1.0000 0.58060  0.73320  0.33908  Biso   1.000  H 
  N1       1.0000 0.64646  0.78427  0.07509  Biso   1.000  N 
  N2       1.0000 0.86664  0.21099  0.54561  Biso   1.000  N 
  N3       1.0000 0.96587  0.64330  0.12816  Biso   1.000  N 
  N4       1.0000 0.46594  0.14480  0.12681  Biso   1.000  N 
  N5       1.0000 0.36670  0.71158  0.54464  Biso   1.000  N 
  N6       1.0000 0.86614  0.77712  0.99057  Biso   1.000  N 
  N7       1.0000 0.97054  0.70295  0.94084  Biso   1.000  N 
  N8       1.0000 0.14648  0.28304  0.07605  Biso   1.000  N 
  N9       1.0000 0.54202  0.85747  0.12466  Biso   1.000  N 
  N10      1.0000 0.54669  0.91714  0.93731  Biso   1.000  N 
  N11      1.0000 0.36615  0.27792  0.98956  Biso   1.000  N 
  N12      1.0000 0.47055  0.20412  0.93937  Biso   1.000  N 
  N13      1.0000 0.64591  0.35111  0.51798  Biso   1.000  N 
  N14      1.0000 0.04666  0.41567  0.93889  Biso   1.000  N 
  N15      1.0000 0.04221  0.72492  0.60607  Biso   1.000  N 
  N16      1.0000 0.96694  0.39977  0.64016  Biso   1.000  N 
  N17      1.0000 0.97044  0.33387  0.46112  Biso   1.000  N 
  N18      1.0000 0.04206  0.35644  0.12638  Biso   1.000  N 
  N19      1.0000 0.47046  0.83531  0.45961  Biso   1.000  N 
  N20      1.0000 0.54562  0.16119  0.42490  Biso   1.000  N 
  N21      1.0000 0.54224  0.22635  0.60429  Biso   1.000  N 
  N22      1.0000 0.46699  0.90092  0.63878  Biso   1.000  N 
  N23      1.0000 0.14588  0.84973  0.51955  Biso   1.000  N 
  N24      1.0000 0.04556  0.66010  0.42654  Biso   1.000  N 
  O1       1.0000 0.16236  0.62928  0.29737  Biso   1.000  O 
  O2       1.0000 0.35012  0.93183  0.76685  Biso   1.000  O 
  O3       1.0000 0.85004  0.43084  0.76818  Biso   1.000  O 
  O4       1.0000 0.85266  0.90677  0.27526  Biso   1.000  O 
  O5       1.0000 0.65995  0.65293  0.79116  Biso   1.000  O 
  O6       1.0000 0.15988  0.15254  0.79160  Biso   1.000  O 
  O7       1.0000 0.66248  0.13196  0.29479  Biso   1.000  O 
  O8       1.0000 0.35268  0.40686  0.27456  Biso   1.000  O 
