data_image0
_cell_length_a       25.5337
_cell_length_b       24.938
_cell_length_c       6.71485
_cell_angle_alpha    89.9945
_cell_angle_beta     87.4501
_cell_angle_gamma    89.9953

_symmetry_space_group_name_H-M    "P 1"
_symmetry_int_tables_number       1

loop_
  _symmetry_equiv_pos_as_xyz
  'x, y, z'

loop_
  _atom_site_label
  _atom_site_occupancy
  _atom_site_fract_x
  _atom_site_fract_y
  _atom_site_fract_z
  _atom_site_thermal_displace_type
  _atom_site_B_iso_or_equiv
  _atom_site_type_symbol
  C1       1.0000 0.29651  0.81763  0.57104  Biso   1.000  C 
  C2       1.0000 0.93004  0.43659  0.66657  Biso   1.000  C 
  C3       1.0000 0.41726  0.96156  0.35087  Biso   1.000  C 
  C4       1.0000 0.09422  0.46094  0.21508  Biso   1.000  C 
  C5       1.0000 0.59438  0.96122  0.21271  Biso   1.000  C 
  C6       1.0000 0.77687  0.28234  0.72063  Biso   1.000  C 
  C7       1.0000 0.23929  0.74412  0.67872  Biso   1.000  C 
  C8       1.0000 0.73859  0.24465  0.68000  Biso   1.000  C 
  C9       1.0000 0.21818  0.74135  0.48915  Biso   1.000  C 
  C10      1.0000 0.11161  0.42471  0.06621  Biso   1.000  C 
  C11      1.0000 0.08113  0.43602  0.90216  Biso   1.000  C 
  C12      1.0000 0.40012  0.92496  0.49886  Biso   1.000  C 
  C13      1.0000 0.58116  0.93589  0.90031  Biso   1.000  C 
  C14      1.0000 0.43064  0.93608  0.66300  Biso   1.000  C 
  C15      1.0000 0.73606  0.27840  0.34382  Biso   1.000  C 
  C16      1.0000 0.27550  0.81479  0.38130  Biso   1.000  C 
  C17      1.0000 0.23705  0.77720  0.34157  Biso   1.000  C 
  C18      1.0000 0.77435  0.31610  0.38441  Biso   1.000  C 
  C19      1.0000 0.79545  0.31863  0.57407  Biso   1.000  C 
  C20      1.0000 0.33765  0.85693  0.63031  Biso   1.000  C 
  C21      1.0000 0.83653  0.35794  0.63388  Biso   1.000  C 
  C22      1.0000 0.93081  0.62597  0.16621  Biso   1.000  C 
  C23      1.0000 0.43091  0.12594  0.16329  Biso   1.000  C 
  C24      1.0000 0.90037  0.63722  0.00197  Biso   1.000  C 
  C25      1.0000 0.40043  0.13717  0.99915  Biso   1.000  C 
  C26      1.0000 0.71746  0.24213  0.49041  Biso   1.000  C 
  C27      1.0000 0.89944  0.42558  0.50252  Biso   1.000  C 
  C28      1.0000 0.11328  0.63546  0.56441  Biso   1.000  C 
  C29      1.0000 0.61171  0.92481  0.06437  Biso   1.000  C 
  C30      1.0000 0.83715  0.70447  0.13401  Biso   1.000  C 
  C31      1.0000 0.33729  0.20439  0.13182  Biso   1.000  C 
  C32      1.0000 0.91683  0.46197  0.35418  Biso   1.000  C 
  C33      1.0000 0.59543  0.09945  0.71181  Biso   1.000  C 
  C34      1.0000 0.09566  0.59934  0.71331  Biso   1.000  C 
  C35      1.0000 0.23577  0.28316  0.84396  Biso   1.000  C 
  C36      1.0000 0.77486  0.74609  0.88440  Biso   1.000  C 
  C37      1.0000 0.27469  0.24605  0.88329  Biso   1.000  C 
  C38      1.0000 0.79556  0.74329  0.07470  Biso   1.000  C 
  C39      1.0000 0.61298  0.13573  0.56334  Biso   1.000  C 
  C40      1.0000 0.58221  0.12494  0.39959  Biso   1.000  C 
  C41      1.0000 0.08234  0.62474  0.40106  Biso   1.000  C 
  C42      1.0000 0.29561  0.24320  0.07322  Biso   1.000  C 
  C43      1.0000 0.77597  0.77874  0.22237  Biso   1.000  C 
  C44      1.0000 0.73602  0.78322  0.84420  Biso   1.000  C 
  C45      1.0000 0.73714  0.81587  0.18216  Biso   1.000  C 
  C46      1.0000 0.23721  0.31569  0.18199  Biso   1.000  C 
  C47      1.0000 0.27614  0.27857  0.22137  Biso   1.000  C 
  C48      1.0000 0.71645  0.81868  0.99185  Biso   1.000  C 
  C49      1.0000 0.21633  0.31856  0.99205  Biso   1.000  C 
  C50      1.0000 0.67491  0.85751  0.93237  Biso   1.000  C 
  C51      1.0000 0.17473  0.35744  0.93330  Biso   1.000  C 
  C52      1.0000 0.17674  0.70227  0.43072  Biso   1.000  C 
  C53      1.0000 0.67623  0.20294  0.43094  Biso   1.000  C 
  C54      1.0000 0.27773  0.78171  0.71849  Biso   1.000  C 
  C55      1.0000 0.41775  0.10080  0.85064  Biso   1.000  C 
  C56      1.0000 0.91777  0.60092  0.85337  Biso   1.000  C 
  Co1      1.0000 0.50607  0.02213  0.78159  Biso   1.000  Co
  Co2      1.0000 0.00601  0.52229  0.78413  Biso   1.000  Co
  Co3      1.0000 0.00588  0.53957  0.28438  Biso   1.000  Co
  Co4      1.0000 0.50598  0.03965  0.28174  Biso   1.000  Co
  H1       1.0000 0.29433  0.78386  0.86498  Biso   1.000  H 
  H2       1.0000 0.42996  0.14442  0.30923  Biso   1.000  H 
  H3       1.0000 0.72401  0.84279  0.30259  Biso   1.000  H 
  H4       1.0000 0.78671  0.34368  0.26498  Biso   1.000  H 
  H5       1.0000 0.28806  0.84203  0.26104  Biso   1.000  H 
  H6       1.0000 0.22044  0.77503  0.19507  Biso   1.000  H 
  H7       1.0000 0.22678  0.71682  0.79879  Biso   1.000  H 
  H8       1.0000 0.92983  0.64441  0.31222  Biso   1.000  H 
  H9       1.0000 0.71938  0.27647  0.19742  Biso   1.000  H 
  H10      1.0000 0.90403  0.46744  0.20335  Biso   1.000  H 
  H11      1.0000 0.58321  0.14347  0.25373  Biso   1.000  H 
  H12      1.0000 0.60828  0.09386  0.86250  Biso   1.000  H 
  H13      1.0000 0.16377  0.68097  0.72452  Biso   1.000  H 
  H14      1.0000 0.16164  0.37886  0.22693  Biso   1.000  H 
  H15      1.0000 0.66169  0.87908  0.22575  Biso   1.000  H 
  H16      1.0000 0.35042  0.18303  0.83814  Biso   1.000  H 
  H17      1.0000 0.85046  0.68305  0.84053  Biso   1.000  H 
  H18      1.0000 0.22415  0.34253  0.30278  Biso   1.000  H 
  H19      1.0000 0.08335  0.64319  0.25506  Biso   1.000  H 
  H20      1.0000 0.72625  0.21705  0.79939  Biso   1.000  H 
  H21      1.0000 0.79353  0.28426  0.86707  Biso   1.000  H 
  H22      1.0000 0.58206  0.91736  0.75448  Biso   1.000  H 
  H23      1.0000 0.29260  0.27638  0.36810  Biso   1.000  H 
  H24      1.0000 0.40498  0.09547  0.69974  Biso   1.000  H 
  H25      1.0000 0.78798  0.71917  0.76391  Biso   1.000  H 
  H26      1.0000 0.28772  0.21921  0.76246  Biso   1.000  H 
  H27      1.0000 0.66309  0.18140  0.72437  Biso   1.000  H 
  H28      1.0000 0.08210  0.41767  0.75600  Biso   1.000  H 
  H29      1.0000 0.90505  0.59561  0.70239  Biso   1.000  H 
  H30      1.0000 0.21927  0.28536  0.69728  Biso   1.000  H 
  H31      1.0000 0.10857  0.59383  0.86395  Biso   1.000  H 
  H32      1.0000 0.60714  0.96662  0.36362  Biso   1.000  H 
  H33      1.0000 0.10695  0.46619  0.36611  Biso   1.000  H 
  H34      1.0000 0.42980  0.91747  0.80872  Biso   1.000  H 
  H35      1.0000 0.71970  0.78538  0.69720  Biso   1.000  H 
  H36      1.0000 0.40447  0.96704  0.20006  Biso   1.000  H 
  H37      1.0000 0.35041  0.87900  0.33714  Biso   1.000  H 
  H38      1.0000 0.84969  0.37975  0.34060  Biso   1.000  H 
  H39      1.0000 0.92913  0.41806  0.81243  Biso   1.000  H 
  H40      1.0000 0.79228  0.77660  0.36939  Biso   1.000  H 
  N1       1.0000 0.55592  0.99194  0.14061  Biso   1.000  N 
  N2       1.0000 0.86039  0.38703  0.48180  Biso   1.000  N 
  N3       1.0000 0.96425  0.58557  0.11617  Biso   1.000  N 
  N4       1.0000 0.46429  0.08549  0.11332  Biso   1.000  N 
  N5       1.0000 0.15069  0.38613  0.08604  Biso   1.000  N 
  N6       1.0000 0.86130  0.67577  0.98156  Biso   1.000  N 
  N7       1.0000 0.65078  0.88625  0.08475  Biso   1.000  N 
  N8       1.0000 0.45614  0.06995  0.92269  Biso   1.000  N 
  N9       1.0000 0.54771  0.97630  0.95021  Biso   1.000  N 
  N10      1.0000 0.95617  0.57010  0.92544  Biso   1.000  N 
  N11      1.0000 0.36126  0.88619  0.47820  Biso   1.000  N 
  N12      1.0000 0.36137  0.17576  0.97904  Biso   1.000  N 
  N13      1.0000 0.45559  0.99242  0.42320  Biso   1.000  N 
  N14      1.0000 0.04842  0.58483  0.45190  Biso   1.000  N 
  N15      1.0000 0.04769  0.47639  0.95249  Biso   1.000  N 
  N16      1.0000 0.96358  0.47691  0.61656  Biso   1.000  N 
  N17      1.0000 0.95538  0.49259  0.42617  Biso   1.000  N 
  N18      1.0000 0.05580  0.49179  0.14324  Biso   1.000  N 
  N19      1.0000 0.46389  0.97668  0.61345  Biso   1.000  N 
  N20      1.0000 0.54844  0.08485  0.44980  Biso   1.000  N 
  N21      1.0000 0.05667  0.56913  0.64225  Biso   1.000  N 
  N22      1.0000 0.15277  0.67362  0.58375  Biso   1.000  N 
  N23      1.0000 0.65231  0.17403  0.58336  Biso   1.000  N 
  N24      1.0000 0.55664  0.06910  0.64012  Biso   1.000  N 
  O1       1.0000 0.66316  0.86296  0.75614  Biso   1.000  O 
  O2       1.0000 0.16287  0.36295  0.75721  Biso   1.000  O 
  O3       1.0000 0.66442  0.19751  0.25479  Biso   1.000  O 
  O4       1.0000 0.16480  0.69668  0.25477  Biso   1.000  O 
  O5       1.0000 0.34957  0.86228  0.80638  Biso   1.000  O 
  O6       1.0000 0.84824  0.36340  0.81013  Biso   1.000  O 
  O7       1.0000 0.84894  0.69900  0.31019  Biso   1.000  O 
  O8       1.0000 0.34921  0.19888  0.30782  Biso   1.000  O 
