data_image0
_cell_length_a       25.3037
_cell_length_b       25.0949
_cell_length_c       6.99627
_cell_angle_alpha    89.9638
_cell_angle_beta     90.4155
_cell_angle_gamma    89.9952

_symmetry_space_group_name_H-M    "P 1"
_symmetry_int_tables_number       1

loop_
  _symmetry_equiv_pos_as_xyz
  'x, y, z'

loop_
  _atom_site_label
  _atom_site_occupancy
  _atom_site_fract_x
  _atom_site_fract_y
  _atom_site_fract_z
  _atom_site_thermal_displace_type
  _atom_site_B_iso_or_equiv
  _atom_site_type_symbol
  C1       1.0000 0.29637  0.81869  0.57248  Biso   1.000  C 
  C2       1.0000 0.33683  0.20195  0.13077  Biso   1.000  C 
  C3       1.0000 0.91950  0.45738  0.35426  Biso   1.000  C 
  C4       1.0000 0.59303  0.10442  0.71054  Biso   1.000  C 
  C5       1.0000 0.09331  0.60402  0.71048  Biso   1.000  C 
  C6       1.0000 0.23471  0.28459  0.84935  Biso   1.000  C 
  C7       1.0000 0.77346  0.74670  0.88846  Biso   1.000  C 
  C8       1.0000 0.27331  0.24652  0.88872  Biso   1.000  C 
  C9       1.0000 0.79543  0.74198  0.07285  Biso   1.000  C 
  C10      1.0000 0.61254  0.13618  0.56154  Biso   1.000  C 
  C11      1.0000 0.08404  0.62006  0.39882  Biso   1.000  C 
  C12      1.0000 0.29528  0.24185  0.07312  Biso   1.000  C 
  C13      1.0000 0.77726  0.77650  0.21588  Biso   1.000  C 
  C14      1.0000 0.73485  0.78478  0.84924  Biso   1.000  C 
  C15      1.0000 0.73865  0.81458  0.17663  Biso   1.000  C 
  C16      1.0000 0.23853  0.31449  0.17665  Biso   1.000  C 
  C17      1.0000 0.27712  0.27641  0.21605  Biso   1.000  C 
  C18      1.0000 0.71666  0.81931  0.99226  Biso   1.000  C 
  C19      1.0000 0.21654  0.31917  0.99226  Biso   1.000  C 
  C20      1.0000 0.67509  0.85923  0.93472  Biso   1.000  C 
  C21      1.0000 0.17501  0.35912  0.93463  Biso   1.000  C 
  C22      1.0000 0.17614  0.70143  0.43407  Biso   1.000  C 
  C23      1.0000 0.67552  0.20209  0.43389  Biso   1.000  C 
  C24      1.0000 0.27842  0.78387  0.71519  Biso   1.000  C 
  C25      1.0000 0.41962  0.10459  0.85426  Biso   1.000  C 
  C26      1.0000 0.91969  0.60462  0.85409  Biso   1.000  C 
  C27      1.0000 0.83696  0.70205  0.13044  Biso   1.000  C 
  C28      1.0000 0.61216  0.92521  0.06210  Biso   1.000  C 
  C29      1.0000 0.58379  0.12029  0.39876  Biso   1.000  C 
  C30      1.0000 0.89993  0.42559  0.50310  Biso   1.000  C 
  C31      1.0000 0.92860  0.44150  0.66606  Biso   1.000  C 
  C32      1.0000 0.11291  0.63577  0.56158  Biso   1.000  C 
  C33      1.0000 0.09261  0.45688  0.21095  Biso   1.000  C 
  C34      1.0000 0.59270  0.95699  0.21102  Biso   1.000  C 
  C35      1.0000 0.77784  0.28449  0.71485  Biso   1.000  C 
  C36      1.0000 0.23990  0.74573  0.67582  Biso   1.000  C 
  C37      1.0000 0.73937  0.24631  0.67539  Biso   1.000  C 
  C38      1.0000 0.21776  0.74125  0.49159  Biso   1.000  C 
  C39      1.0000 0.11207  0.42510  0.06203  Biso   1.000  C 
  C40      1.0000 0.08344  0.44119  0.89915  Biso   1.000  C 
  C41      1.0000 0.40048  0.92505  0.50320  Biso   1.000  C 
  C42      1.0000 0.58351  0.94128  0.89924  Biso   1.000  C 
  C43      1.0000 0.42907  0.94112  0.66614  Biso   1.000  C 
  C44      1.0000 0.41986  0.95696  0.35435  Biso   1.000  C 
  C45      1.0000 0.27429  0.81415  0.38823  Biso   1.000  C 
  C46      1.0000 0.23576  0.77603  0.34886  Biso   1.000  C 
  C47      1.0000 0.73478  0.27703  0.34901  Biso   1.000  C 
  C48      1.0000 0.77325  0.31521  0.38847  Biso   1.000  C 
  C49      1.0000 0.79553  0.31954  0.57248  Biso   1.000  C 
  C50      1.0000 0.33773  0.85877  0.63023  Biso   1.000  C 
  C51      1.0000 0.83693  0.35958  0.63025  Biso   1.000  C 
  C52      1.0000 0.92880  0.62034  0.16591  Biso   1.000  C 
  C53      1.0000 0.42867  0.12022  0.16615  Biso   1.000  C 
  C54      1.0000 0.90012  0.63632  0.00302  Biso   1.000  C 
  C55      1.0000 0.40001  0.13624  0.00327  Biso   1.000  C 
  C56      1.0000 0.71704  0.24202  0.49142  Biso   1.000  C 
  Co1      1.0000 0.50624  0.03588  0.28278  Biso   1.000  Co
  Co2      1.0000 0.00624  0.53589  0.28269  Biso   1.000  Co
  Co3      1.0000 0.50628  0.02594  0.78258  Biso   1.000  Co
  Co4      1.0000 0.00625  0.52587  0.78244  Biso   1.000  Co
  H1       1.0000 0.21751  0.28821  0.70667  Biso   1.000  H 
  H2       1.0000 0.40859  0.10378  0.70392  Biso   1.000  H 
  H3       1.0000 0.29433  0.27279  0.35874  Biso   1.000  H 
  H4       1.0000 0.78529  0.72037  0.77214  Biso   1.000  H 
  H5       1.0000 0.28517  0.22016  0.77250  Biso   1.000  H 
  H6       1.0000 0.66267  0.18429  0.71651  Biso   1.000  H 
  H7       1.0000 0.08621  0.42698  0.75357  Biso   1.000  H 
  H8       1.0000 0.90864  0.60376  0.70377  Biso   1.000  H 
  H9       1.0000 0.10441  0.60300  0.86074  Biso   1.000  H 
  H10      1.0000 0.92576  0.42725  0.81163  Biso   1.000  H 
  H11      1.0000 0.10366  0.45764  0.36127  Biso   1.000  H 
  H12      1.0000 0.42635  0.92684  0.81169  Biso   1.000  H 
  H13      1.0000 0.71763  0.78842  0.70659  Biso   1.000  H 
  H14      1.0000 0.40887  0.95784  0.20396  Biso   1.000  H 
  H15      1.0000 0.35064  0.87676  0.34779  Biso   1.000  H 
  H16      1.0000 0.84999  0.37740  0.34777  Biso   1.000  H 
  H17      1.0000 0.79447  0.77285  0.35855  Biso   1.000  H 
  H18      1.0000 0.58627  0.92707  0.75366  Biso   1.000  H 
  H19      1.0000 0.60373  0.95776  0.36136  Biso   1.000  H 
  H20      1.0000 0.79532  0.28782  0.85716  Biso   1.000  H 
  H21      1.0000 0.21846  0.77257  0.20629  Biso   1.000  H 
  H22      1.0000 0.08684  0.63432  0.25325  Biso   1.000  H 
  H23      1.0000 0.72792  0.21953  0.79107  Biso   1.000  H 
  H24      1.0000 0.29573  0.78738  0.85773  Biso   1.000  H 
  H25      1.0000 0.42584  0.13435  0.31179  Biso   1.000  H 
  H26      1.0000 0.72680  0.84091  0.29296  Biso   1.000  H 
  H27      1.0000 0.28599  0.84069  0.27219  Biso   1.000  H 
  H28      1.0000 0.22824  0.71917  0.79184  Biso   1.000  H 
  H29      1.0000 0.92597  0.63450  0.31150  Biso   1.000  H 
  H30      1.0000 0.71732  0.27371  0.20666  Biso   1.000  H 
  H31      1.0000 0.78473  0.34198  0.27280  Biso   1.000  H 
  H32      1.0000 0.58657  0.13453  0.25315  Biso   1.000  H 
  H33      1.0000 0.60407  0.10350  0.86086  Biso   1.000  H 
  H34      1.0000 0.16323  0.68365  0.71666  Biso   1.000  H 
  H35      1.0000 0.16203  0.37679  0.21717  Biso   1.000  H 
  H36      1.0000 0.66219  0.87699  0.21729  Biso   1.000  H 
  H37      1.0000 0.34989  0.18436  0.84819  Biso   1.000  H 
  H38      1.0000 0.85001  0.68445  0.84787  Biso   1.000  H 
  H39      1.0000 0.90852  0.45831  0.20386  Biso   1.000  H 
  H40      1.0000 0.22670  0.34086  0.29288  Biso   1.000  H 
  N1       1.0000 0.04914  0.48002  0.94993  Biso   1.000  N 
  N2       1.0000 0.96303  0.48023  0.61543  Biso   1.000  N 
  N3       1.0000 0.95741  0.49004  0.42466  Biso   1.000  N 
  N4       1.0000 0.05479  0.48971  0.14075  Biso   1.000  N 
  N5       1.0000 0.15235  0.67438  0.58084  Biso   1.000  N 
  N6       1.0000 0.54935  0.08159  0.44968  Biso   1.000  N 
  N7       1.0000 0.05517  0.57158  0.64037  Biso   1.000  N 
  N8       1.0000 0.65182  0.17497  0.58070  Biso   1.000  N 
  N9       1.0000 0.04946  0.58148  0.44969  Biso   1.000  N 
  N10      1.0000 0.55504  0.07179  0.64043  Biso   1.000  N 
  N11      1.0000 0.46329  0.98005  0.61550  Biso   1.000  N 
  N12      1.0000 0.45760  0.98984  0.42473  Biso   1.000  N 
  N13      1.0000 0.65135  0.88632  0.08143  Biso   1.000  N 
  N14      1.0000 0.36141  0.88605  0.48371  Biso   1.000  N 
  N15      1.0000 0.36071  0.17500  0.98404  Biso   1.000  N 
  N16      1.0000 0.86069  0.38676  0.48369  Biso   1.000  N 
  N17      1.0000 0.96323  0.58163  0.11517  Biso   1.000  N 
  N18      1.0000 0.46314  0.08155  0.11532  Biso   1.000  N 
  N19      1.0000 0.55487  0.98981  0.14081  Biso   1.000  N 
  N20      1.0000 0.86083  0.67510  0.98372  Biso   1.000  N 
  N21      1.0000 0.45757  0.07190  0.92445  Biso   1.000  N 
  N22      1.0000 0.54920  0.98011  0.95002  Biso   1.000  N 
  N23      1.0000 0.95763  0.57192  0.92436  Biso   1.000  N 
  N24      1.0000 0.15124  0.38618  0.08133  Biso   1.000  N 
  O1       1.0000 0.84900  0.69432  0.30044  Biso   1.000  O 
  O2       1.0000 0.66292  0.86686  0.76480  Biso   1.000  O 
  O3       1.0000 0.16290  0.36679  0.76469  Biso   1.000  O 
  O4       1.0000 0.66331  0.19452  0.26402  Biso   1.000  O 
  O5       1.0000 0.16392  0.69388  0.26418  Biso   1.000  O 
  O6       1.0000 0.34977  0.86636  0.80024  Biso   1.000  O 
  O7       1.0000 0.84897  0.36717  0.80027  Biso   1.000  O 
  O8       1.0000 0.34888  0.19425  0.30076  Biso   1.000  O 
