data_image0
_cell_length_a       30.2106
_cell_length_b       19.1697
_cell_length_c       5.2756
_cell_angle_alpha    89.5496
_cell_angle_beta     88.5135
_cell_angle_gamma    89.8846

_symmetry_space_group_name_H-M    "P 1"
_symmetry_int_tables_number       1

loop_
  _symmetry_equiv_pos_as_xyz
  'x, y, z'

loop_
  _atom_site_label
  _atom_site_occupancy
  _atom_site_fract_x
  _atom_site_fract_y
  _atom_site_fract_z
  _atom_site_thermal_displace_type
  _atom_site_B_iso_or_equiv
  _atom_site_type_symbol
  C1       1.0000 0.29715  0.81349  0.57097  Biso   1.000  C 
  C2       1.0000 0.34036  0.21390  0.13080  Biso   1.000  C 
  C3       1.0000 0.73140  0.76224  0.82582  Biso   1.000  C 
  C4       1.0000 0.59391  0.09699  0.78439  Biso   1.000  C 
  C5       1.0000 0.09410  0.59669  0.78425  Biso   1.000  C 
  C6       1.0000 0.23134  0.26225  0.82443  Biso   1.000  C 
  C7       1.0000 0.77194  0.72990  0.86544  Biso   1.000  C 
  C8       1.0000 0.27186  0.22985  0.86400  Biso   1.000  C 
  C9       1.0000 0.79726  0.74819  0.07422  Biso   1.000  C 
  C10      1.0000 0.60977  0.14888  0.61602  Biso   1.000  C 
  C11      1.0000 0.57765  0.15492  0.42866  Biso   1.000  C 
  C12      1.0000 0.07792  0.65455  0.42825  Biso   1.000  C 
  C13      1.0000 0.29721  0.24812  0.07273  Biso   1.000  C 
  C14      1.0000 0.78103  0.79911  0.24211  Biso   1.000  C 
  C15      1.0000 0.28102  0.29909  0.24054  Biso   1.000  C 
  C16      1.0000 0.74050  0.83147  0.20248  Biso   1.000  C 
  C17      1.0000 0.24050  0.33149  0.20099  Biso   1.000  C 
  C18      1.0000 0.71520  0.81323  0.99353  Biso   1.000  C 
  C19      1.0000 0.21517  0.31325  0.99217  Biso   1.000  C 
  C20      1.0000 0.67210  0.84756  0.93510  Biso   1.000  C 
  C21      1.0000 0.17206  0.34756  0.93389  Biso   1.000  C 
  C22      1.0000 0.17363  0.71055  0.43096  Biso   1.000  C 
  C23      1.0000 0.67318  0.21156  0.43250  Biso   1.000  C 
  C24      1.0000 0.28146  0.76191  0.74035  Biso   1.000  C 
  C25      1.0000 0.42006  0.10095  0.78182  Biso   1.000  C 
  C26      1.0000 0.92011  0.60122  0.78283  Biso   1.000  C 
  C27      1.0000 0.84044  0.71407  0.13226  Biso   1.000  C 
  C28      1.0000 0.91850  0.46457  0.28082  Biso   1.000  C 
  C29      1.0000 0.11008  0.64838  0.61534  Biso   1.000  C 
  C30      1.0000 0.90262  0.41264  0.44906  Biso   1.000  C 
  C31      1.0000 0.93471  0.40665  0.63662  Biso   1.000  C 
  C32      1.0000 0.41869  0.96420  0.27954  Biso   1.000  C 
  C33      1.0000 0.09236  0.46042  0.28345  Biso   1.000  C 
  C34      1.0000 0.59239  0.96058  0.28366  Biso   1.000  C 
  C35      1.0000 0.78086  0.26315  0.74290  Biso   1.000  C 
  C36      1.0000 0.24147  0.72835  0.70045  Biso   1.000  C 
  C37      1.0000 0.74088  0.22959  0.70285  Biso   1.000  C 
  C38      1.0000 0.21619  0.74599  0.48961  Biso   1.000  C 
  C39      1.0000 0.10805  0.40806  0.11921  Biso   1.000  C 
  C40      1.0000 0.60810  0.90812  0.11985  Biso   1.000  C 
  C41      1.0000 0.07480  0.39938  0.94021  Biso   1.000  C 
  C42      1.0000 0.40293  0.91211  0.44744  Biso   1.000  C 
  C43      1.0000 0.57489  0.89938  0.94066  Biso   1.000  C 
  C44      1.0000 0.43497  0.90629  0.63527  Biso   1.000  C 
  C45      1.0000 0.73139  0.29871  0.32228  Biso   1.000  C 
  C46      1.0000 0.27188  0.83111  0.36004  Biso   1.000  C 
  C47      1.0000 0.23190  0.79753  0.32014  Biso   1.000  C 
  C48      1.0000 0.77138  0.33226  0.36233  Biso   1.000  C 
  C49      1.0000 0.79663  0.31463  0.57337  Biso   1.000  C 
  C50      1.0000 0.33959  0.84916  0.63029  Biso   1.000  C 
  C51      1.0000 0.83914  0.35011  0.63250  Biso   1.000  C 
  C52      1.0000 0.93773  0.66236  0.12572  Biso   1.000  C 
  C53      1.0000 0.43762  0.16223  0.12447  Biso   1.000  C 
  C54      1.0000 0.90446  0.65366  0.94690  Biso   1.000  C 
  C55      1.0000 0.40437  0.15342  0.94563  Biso   1.000  C 
  C56      1.0000 0.71566  0.24716  0.49169  Biso   1.000  C 
  Co1      1.0000 0.00582  0.55348  0.27165  Biso   1.000  Co
  Co2      1.0000 0.50581  0.05356  0.27103  Biso   1.000  Co
  Co3      1.0000 0.00663  0.50814  0.79426  Biso   1.000  Co
  Co4      1.0000 0.50665  0.00802  0.79381  Biso   1.000  Co
  H1       1.0000 0.40507  0.07887  0.61587  Biso   1.000  H 
  H2       1.0000 0.78352  0.68990  0.73351  Biso   1.000  H 
  H3       1.0000 0.28342  0.18982  0.73213  Biso   1.000  H 
  H4       1.0000 0.10818  0.57648  0.95716  Biso   1.000  H 
  H5       1.0000 0.66000  0.19492  0.81590  Biso   1.000  H 
  H6       1.0000 0.80053  0.24991  0.90664  Biso   1.000  H 
  H7       1.0000 0.07392  0.36565  0.77678  Biso   1.000  H 
  H8       1.0000 0.90509  0.57923  0.61681  Biso   1.000  H 
  H9       1.0000 0.21156  0.24844  0.66261  Biso   1.000  H 
  H10      1.0000 0.93526  0.37378  0.80428  Biso   1.000  H 
  H11      1.0000 0.60735  0.98261  0.44979  Biso   1.000  H 
  H12      1.0000 0.10735  0.48238  0.44964  Biso   1.000  H 
  H13      1.0000 0.43557  0.87341  0.80286  Biso   1.000  H 
  H14      1.0000 0.71164  0.74843  0.66394  Biso   1.000  H 
  H15      1.0000 0.40463  0.98435  0.10652  Biso   1.000  H 
  H16      1.0000 0.35286  0.86580  0.24692  Biso   1.000  H 
  H17      1.0000 0.85239  0.36663  0.24905  Biso   1.000  H 
  H18      1.0000 0.80080  0.81293  0.40397  Biso   1.000  H 
  H19      1.0000 0.57405  0.86558  0.77741  Biso   1.000  H 
  H20      1.0000 0.30080  0.31291  0.40233  Biso   1.000  H 
  H21      1.0000 0.72963  0.18931  0.83649  Biso   1.000  H 
  H22      1.0000 0.22893  0.37150  0.33292  Biso   1.000  H 
  H23      1.0000 0.72890  0.87143  0.33449  Biso   1.000  H 
  H24      1.0000 0.43851  0.19606  0.28764  Biso   1.000  H 
  H25      1.0000 0.78261  0.37260  0.22881  Biso   1.000  H 
  H26      1.0000 0.28308  0.87147  0.22656  Biso   1.000  H 
  H27      1.0000 0.21217  0.81083  0.15669  Biso   1.000  H 
  H28      1.0000 0.23027  0.68799  0.83396  Biso   1.000  H 
  H29      1.0000 0.93866  0.69613  0.28904  Biso   1.000  H 
  H30      1.0000 0.30117  0.74867  0.90395  Biso   1.000  H 
  H31      1.0000 0.71170  0.31198  0.15862  Biso   1.000  H 
  H32      1.0000 0.07741  0.68730  0.26027  Biso   1.000  H 
  H33      1.0000 0.57708  0.18775  0.26091  Biso   1.000  H 
  H34      1.0000 0.60801  0.07679  0.95725  Biso   1.000  H 
  H35      1.0000 0.16049  0.69414  0.81456  Biso   1.000  H 
  H36      1.0000 0.15936  0.36352  0.31748  Biso   1.000  H 
  H37      1.0000 0.65936  0.86359  0.31864  Biso   1.000  H 
  H38      1.0000 0.35304  0.19786  0.74720  Biso   1.000  H 
  H39      1.0000 0.90444  0.48476  0.10783  Biso   1.000  H 
  H40      1.0000 0.85312  0.69812  0.74863  Biso   1.000  H 
  N1       1.0000 0.46764  0.95214  0.57966  Biso   1.000  N 
  N2       1.0000 0.96750  0.45226  0.58057  Biso   1.000  N 
  N3       1.0000 0.95757  0.48783  0.36580  Biso   1.000  N 
  N4       1.0000 0.05199  0.48084  0.20735  Biso   1.000  N 
  N5       1.0000 0.55481  0.07379  0.69974  Biso   1.000  N 
  N6       1.0000 0.54485  0.10938  0.48509  Biso   1.000  N 
  N7       1.0000 0.45766  0.98772  0.36498  Biso   1.000  N 
  N8       1.0000 0.05490  0.57375  0.70015  Biso   1.000  N 
  N9       1.0000 0.14983  0.68517  0.63493  Biso   1.000  N 
  N10      1.0000 0.64940  0.18594  0.63616  Biso   1.000  N 
  N11      1.0000 0.04499  0.60930  0.48528  Biso   1.000  N 
  N12      1.0000 0.04127  0.44339  0.99887  Biso   1.000  N 
  N13      1.0000 0.36412  0.18918  0.92670  Biso   1.000  N 
  N14      1.0000 0.54136  0.94345  0.99879  Biso   1.000  N 
  N15      1.0000 0.55204  0.98099  0.20709  Biso   1.000  N 
  N16      1.0000 0.86298  0.37560  0.42882  Biso   1.000  N 
  N17      1.0000 0.97124  0.61828  0.06713  Biso   1.000  N 
  N18      1.0000 0.47116  0.11819  0.06613  Biso   1.000  N 
  N19      1.0000 0.36341  0.87479  0.42678  Biso   1.000  N 
  N20      1.0000 0.86421  0.68944  0.92810  Biso   1.000  N 
  N21      1.0000 0.64832  0.87230  0.13907  Biso   1.000  N 
  N22      1.0000 0.14829  0.37225  0.13799  Biso   1.000  N 
  N23      1.0000 0.46044  0.08060  0.85801  Biso   1.000  N 
  N24      1.0000 0.96048  0.58078  0.85885  Biso   1.000  N 
  O1       1.0000 0.15909  0.35283  0.71174  Biso   1.000  O 
  O2       1.0000 0.66073  0.20607  0.20965  Biso   1.000  O 
  O3       1.0000 0.16111  0.70503  0.20826  Biso   1.000  O 
  O4       1.0000 0.35199  0.85468  0.85324  Biso   1.000  O 
  O5       1.0000 0.85159  0.35557  0.85538  Biso   1.000  O 
  O6       1.0000 0.85345  0.70887  0.35431  Biso   1.000  O 
  O7       1.0000 0.65915  0.85281  0.71289  Biso   1.000  O 
  O8       1.0000 0.35338  0.20871  0.35286  Biso   1.000  O 
