data_image0
_cell_length_a       27.7228
_cell_length_b       22.7799
_cell_length_c       5.60562
_cell_angle_alpha    89.9242
_cell_angle_beta     86.3128
_cell_angle_gamma    89.9941

_symmetry_space_group_name_H-M    "P 1"
_symmetry_int_tables_number       1

loop_
  _symmetry_equiv_pos_as_xyz
  'x, y, z'

loop_
  _atom_site_label
  _atom_site_occupancy
  _atom_site_fract_x
  _atom_site_fract_y
  _atom_site_fract_z
  _atom_site_thermal_displace_type
  _atom_site_B_iso_or_equiv
  _atom_site_type_symbol
  C1       1.0000 0.29676  0.81618  0.56954  Biso   1.000  C 
  C2       1.0000 0.33777  0.20681  0.13056  Biso   1.000  C 
  C3       1.0000 0.73097  0.77319  0.82886  Biso   1.000  C 
  C4       1.0000 0.59739  0.09449  0.75571  Biso   1.000  C 
  C5       1.0000 0.09762  0.59403  0.76080  Biso   1.000  C 
  C6       1.0000 0.23101  0.27388  0.82745  Biso   1.000  C 
  C7       1.0000 0.77044  0.73752  0.86813  Biso   1.000  C 
  C8       1.0000 0.27035  0.23790  0.86562  Biso   1.000  C 
  C9       1.0000 0.79588  0.74469  0.07495  Biso   1.000  C 
  C10      1.0000 0.61185  0.14049  0.59960  Biso   1.000  C 
  C11      1.0000 0.57793  0.14111  0.42354  Biso   1.000  C 
  C12      1.0000 0.07822  0.64064  0.42851  Biso   1.000  C 
  C13      1.0000 0.29591  0.24465  0.07226  Biso   1.000  C 
  C14      1.0000 0.78071  0.78816  0.24023  Biso   1.000  C 
  C15      1.0000 0.28103  0.28807  0.23832  Biso   1.000  C 
  C16      1.0000 0.74123  0.82384  0.20097  Biso   1.000  C 
  C17      1.0000 0.24169  0.32406  0.20014  Biso   1.000  C 
  C18      1.0000 0.71582  0.81668  0.99409  Biso   1.000  C 
  C19      1.0000 0.21612  0.31728  0.99357  Biso   1.000  C 
  C20      1.0000 0.67388  0.85424  0.93449  Biso   1.000  C 
  C21      1.0000 0.17419  0.35504  0.93541  Biso   1.000  C 
  C22      1.0000 0.17622  0.70397  0.43311  Biso   1.000  C 
  C23      1.0000 0.67577  0.20502  0.43027  Biso   1.000  C 
  C24      1.0000 0.28224  0.77262  0.73615  Biso   1.000  C 
  C25      1.0000 0.41582  0.09636  0.80508  Biso   1.000  C 
  C26      1.0000 0.91604  0.59672  0.81029  Biso   1.000  C 
  C27      1.0000 0.83790  0.70722  0.13412  Biso   1.000  C 
  C28      1.0000 0.91493  0.46773  0.30839  Biso   1.000  C 
  C29      1.0000 0.11219  0.63993  0.60432  Biso   1.000  C 
  C30      1.0000 0.90059  0.42147  0.46344  Biso   1.000  C 
  C31      1.0000 0.93425  0.42110  0.64073  Biso   1.000  C 
  C32      1.0000 0.41542  0.96631  0.30387  Biso   1.000  C 
  C33      1.0000 0.09619  0.46554  0.26086  Biso   1.000  C 
  C34      1.0000 0.59602  0.96526  0.25733  Biso   1.000  C 
  C35      1.0000 0.78128  0.27390  0.73669  Biso   1.000  C 
  C36      1.0000 0.24331  0.73599  0.69807  Biso   1.000  C 
  C37      1.0000 0.74255  0.23710  0.69714  Biso   1.000  C 
  C38      1.0000 0.21781  0.74224  0.49099  Biso   1.000  C 
  C39      1.0000 0.11027  0.41931  0.10558  Biso   1.000  C 
  C40      1.0000 0.61002  0.91890  0.10256  Biso   1.000  C 
  C41      1.0000 0.07609  0.41868  0.93078  Biso   1.000  C 
  C42      1.0000 0.40153  0.91992  0.45922  Biso   1.000  C 
  C43      1.0000 0.57609  0.91859  0.92654  Biso   1.000  C 
  C44      1.0000 0.43531  0.91997  0.63593  Biso   1.000  C 
  C45      1.0000 0.73164  0.28724  0.32408  Biso   1.000  C 
  C46      1.0000 0.27127  0.82241  0.36236  Biso   1.000  C 
  C47      1.0000 0.23235  0.78577  0.32428  Biso   1.000  C 
  C48      1.0000 0.77037  0.32407  0.36363  Biso   1.000  C 
  C49      1.0000 0.79572  0.31775  0.57121  Biso   1.000  C 
  C50      1.0000 0.33817  0.85465  0.62829  Biso   1.000  C 
  C51      1.0000 0.83697  0.35637  0.63114  Biso   1.000  C 
  C52      1.0000 0.93615  0.64377  0.13994  Biso   1.000  C 
  C53      1.0000 0.43580  0.14308  0.13568  Biso   1.000  C 
  C54      1.0000 0.90201  0.64308  0.96496  Biso   1.000  C 
  C55      1.0000 0.40170  0.14254  0.96053  Biso   1.000  C 
  C56      1.0000 0.71717  0.24345  0.48968  Biso   1.000  C 
  Co1      1.0000 0.00610  0.54890  0.28353  Biso   1.000  Co
  Co2      1.0000 0.50607  0.04866  0.27930  Biso   1.000  Co
  Co3      1.0000 0.00601  0.51339  0.78790  Biso   1.000  Co
  Co4      1.0000 0.50611  0.01343  0.78177  Biso   1.000  Co
  H1       1.0000 0.40009  0.08115  0.64388  Biso   1.000  H 
  H2       1.0000 0.78079  0.70387  0.73625  Biso   1.000  H 
  H3       1.0000 0.28048  0.20432  0.73305  Biso   1.000  H 
  H4       1.0000 0.11310  0.57882  0.92286  Biso   1.000  H 
  H5       1.0000 0.66149  0.18618  0.78891  Biso   1.000  H 
  H6       1.0000 0.80114  0.26921  0.89707  Biso   1.000  H 
  H7       1.0000 0.07395  0.39094  0.77525  Biso   1.000  H 
  H8       1.0000 0.90023  0.58133  0.64953  Biso   1.000  H 
  H9       1.0000 0.21102  0.26883  0.66772  Biso   1.000  H 
  H10      1.0000 0.93610  0.39336  0.79674  Biso   1.000  H 
  H11      1.0000 0.61169  0.98041  0.41882  Biso   1.000  H 
  H12      1.0000 0.11200  0.48084  0.42176  Biso   1.000  H 
  H13      1.0000 0.43750  0.89227  0.79187  Biso   1.000  H 
  H14      1.0000 0.71111  0.76784  0.66887  Biso   1.000  H 
  H15      1.0000 0.39982  0.98123  0.14167  Biso   1.000  H 
  H16      1.0000 0.35236  0.87351  0.26960  Biso   1.000  H 
  H17      1.0000 0.85133  0.37546  0.27273  Biso   1.000  H 
  H18      1.0000 0.80058  0.79351  0.40020  Biso   1.000  H 
  H19      1.0000 0.57397  0.89086  0.77093  Biso   1.000  H 
  H20      1.0000 0.30102  0.29314  0.39804  Biso   1.000  H 
  H21      1.0000 0.73271  0.20327  0.82944  Biso   1.000  H 
  H22      1.0000 0.23158  0.35766  0.33261  Biso   1.000  H 
  H23      1.0000 0.73089  0.85747  0.33291  Biso   1.000  H 
  H24      1.0000 0.43791  0.17078  0.29137  Biso   1.000  H 
  H25      1.0000 0.78020  0.35790  0.23133  Biso   1.000  H 
  H26      1.0000 0.28113  0.85605  0.22933  Biso   1.000  H 
  H27      1.0000 0.21240  0.79040  0.16417  Biso   1.000  H 
  H28      1.0000 0.23346  0.70234  0.83105  Biso   1.000  H 
  H29      1.0000 0.93830  0.67159  0.29526  Biso   1.000  H 
  H30      1.0000 0.30218  0.76800  0.89626  Biso   1.000  H 
  H31      1.0000 0.71177  0.29193  0.16374  Biso   1.000  H 
  H32      1.0000 0.07639  0.66828  0.27215  Biso   1.000  H 
  H33      1.0000 0.57603  0.16878  0.26734  Biso   1.000  H 
  H34      1.0000 0.61292  0.07930  0.91767  Biso   1.000  H 
  H35      1.0000 0.16214  0.68548  0.79225  Biso   1.000  H 
  H36      1.0000 0.16010  0.37360  0.29425  Biso   1.000  H 
  H37      1.0000 0.65952  0.87308  0.29281  Biso   1.000  H 
  H38      1.0000 0.35192  0.18829  0.77171  Biso   1.000  H 
  H39      1.0000 0.89952  0.48291  0.14609  Biso   1.000  H 
  H40      1.0000 0.85223  0.68865  0.77552  Biso   1.000  H 
  N1       1.0000 0.46724  0.96361  0.58579  Biso   1.000  N 
  N2       1.0000 0.96655  0.46437  0.59118  Biso   1.000  N 
  N3       1.0000 0.95471  0.49308  0.39053  Biso   1.000  N 
  N4       1.0000 0.05597  0.49051  0.18174  Biso   1.000  N 
  N5       1.0000 0.55728  0.06954  0.67543  Biso   1.000  N 
  N6       1.0000 0.54535  0.09823  0.47486  Biso   1.000  N 
  N7       1.0000 0.45504  0.99214  0.38534  Biso   1.000  N 
  N8       1.0000 0.05743  0.56921  0.68081  Biso   1.000  N 
  N9       1.0000 0.15197  0.67707  0.62397  Biso   1.000  N 
  N10      1.0000 0.65148  0.17782  0.62030  Biso   1.000  N 
  N11      1.0000 0.04555  0.59791  0.48021  Biso   1.000  N 
  N12      1.0000 0.04365  0.46169  0.98232  Biso   1.000  N 
  N13      1.0000 0.36210  0.17996  0.94012  Biso   1.000  N 
  N14      1.0000 0.54389  0.96195  0.97683  Biso   1.000  N 
  N15      1.0000 0.55613  0.99064  0.17661  Biso   1.000  N 
  N16      1.0000 0.86121  0.38381  0.44156  Biso   1.000  N 
  N17      1.0000 0.96853  0.60067  0.08904  Biso   1.000  N 
  N18      1.0000 0.46821  0.10002  0.08435  Biso   1.000  N 
  N19      1.0000 0.36233  0.88194  0.43816  Biso   1.000  N 
  N20      1.0000 0.86238  0.68041  0.94405  Biso   1.000  N 
  N21      1.0000 0.64944  0.88128  0.12412  Biso   1.000  N 
  N22      1.0000 0.14990  0.38193  0.12586  Biso   1.000  N 
  N23      1.0000 0.45596  0.07129  0.88461  Biso   1.000  N 
  N24      1.0000 0.95620  0.57174  0.88988  Biso   1.000  N 
  O1       1.0000 0.16237  0.36100  0.72600  Biso   1.000  O 
  O2       1.0000 0.66426  0.19890  0.22049  Biso   1.000  O 
  O3       1.0000 0.16453  0.69776  0.22368  Biso   1.000  O 
  O4       1.0000 0.34972  0.86083  0.83803  Biso   1.000  O 
  O5       1.0000 0.84837  0.36247  0.84114  Biso   1.000  O 
  O6       1.0000 0.84963  0.70138  0.34373  Biso   1.000  O 
  O7       1.0000 0.66222  0.86000  0.72474  Biso   1.000  O 
  O8       1.0000 0.34953  0.20072  0.34002  Biso   1.000  O 
