data_image0
_cell_length_a       26.2543
_cell_length_b       24.3595
_cell_length_c       6.05029
_cell_angle_alpha    89.6336
_cell_angle_beta     84.5705
_cell_angle_gamma    89.9808

_symmetry_space_group_name_H-M    "P 1"
_symmetry_int_tables_number       1

loop_
  _symmetry_equiv_pos_as_xyz
  'x, y, z'

loop_
  _atom_site_label
  _atom_site_occupancy
  _atom_site_fract_x
  _atom_site_fract_y
  _atom_site_fract_z
  _atom_site_thermal_displace_type
  _atom_site_B_iso_or_equiv
  _atom_site_type_symbol
  C1       1.0000 0.29608  0.81707  0.57225  Biso   1.000  C 
  C2       1.0000 0.33735  0.20636  0.13163  Biso   1.000  C 
  C3       1.0000 0.73410  0.77889  0.83342  Biso   1.000  C 
  C4       1.0000 0.59810  0.09412  0.72733  Biso   1.000  C 
  C5       1.0000 0.09838  0.59387  0.73141  Biso   1.000  C 
  C6       1.0000 0.23433  0.27942  0.83105  Biso   1.000  C 
  C7       1.0000 0.77325  0.74270  0.87358  Biso   1.000  C 
  C8       1.0000 0.27350  0.24313  0.86984  Biso   1.000  C 
  C9       1.0000 0.79551  0.74440  0.07578  Biso   1.000  C 
  C10      1.0000 0.61340  0.13652  0.57703  Biso   1.000  C 
  C11      1.0000 0.58050  0.13288  0.40727  Biso   1.000  C 
  C12      1.0000 0.08065  0.63259  0.41142  Biso   1.000  C 
  C13      1.0000 0.29582  0.24445  0.07189  Biso   1.000  C 
  C14      1.0000 0.77742  0.78315  0.23497  Biso   1.000  C 
  C15      1.0000 0.27783  0.28296  0.23224  Biso   1.000  C 
  C16      1.0000 0.73826  0.81932  0.19484  Biso   1.000  C 
  C17      1.0000 0.23865  0.31924  0.19350  Biso   1.000  C 
  C18      1.0000 0.71603  0.81764  0.99259  Biso   1.000  C 
  C19      1.0000 0.21631  0.31790  0.99146  Biso   1.000  C 
  C20      1.0000 0.67454  0.85560  0.93154  Biso   1.000  C 
  C21      1.0000 0.17470  0.35591  0.93203  Biso   1.000  C 
  C22      1.0000 0.17826  0.70250  0.42835  Biso   1.000  C 
  C23      1.0000 0.67758  0.20356  0.42728  Biso   1.000  C 
  C24      1.0000 0.27908  0.77743  0.73167  Biso   1.000  C 
  C25      1.0000 0.41550  0.09712  0.83111  Biso   1.000  C 
  C26      1.0000 0.91548  0.59730  0.83710  Biso   1.000  C 
  C27      1.0000 0.83708  0.70650  0.13663  Biso   1.000  C 
  C28      1.0000 0.91410  0.46735  0.33800  Biso   1.000  C 
  C29      1.0000 0.11374  0.63613  0.58046  Biso   1.000  C 
  C30      1.0000 0.89913  0.42479  0.48815  Biso   1.000  C 
  C31      1.0000 0.93185  0.42887  0.65838  Biso   1.000  C 
  C32      1.0000 0.41449  0.96665  0.33256  Biso   1.000  C 
  C33      1.0000 0.09642  0.46488  0.23348  Biso   1.000  C 
  C34      1.0000 0.59632  0.96507  0.22960  Biso   1.000  C 
  C35      1.0000 0.77811  0.27815  0.73354  Biso   1.000  C 
  C36      1.0000 0.24106  0.74000  0.69146  Biso   1.000  C 
  C37      1.0000 0.74014  0.24078  0.69213  Biso   1.000  C 
  C38      1.0000 0.21896  0.74131  0.48883  Biso   1.000  C 
  C39      1.0000 0.11063  0.42232  0.08441  Biso   1.000  C 
  C40      1.0000 0.61053  0.92235  0.08142  Biso   1.000  C 
  C41      1.0000 0.07726  0.42667  0.91658  Biso   1.000  C 
  C42      1.0000 0.39986  0.92393  0.48252  Biso   1.000  C 
  C43      1.0000 0.57738  0.92668  0.91273  Biso   1.000  C 
  C44      1.0000 0.43268  0.92812  0.65226  Biso   1.000  C 
  C45      1.0000 0.73520  0.28222  0.33085  Biso   1.000  C 
  C46      1.0000 0.27402  0.81832  0.36953  Biso   1.000  C 
  C47      1.0000 0.23603  0.78087  0.32924  Biso   1.000  C 
  C48      1.0000 0.77314  0.31961  0.37235  Biso   1.000  C 
  C49      1.0000 0.79516  0.31802  0.57517  Biso   1.000  C 
  C50      1.0000 0.33647  0.85620  0.63329  Biso   1.000  C 
  C51      1.0000 0.83555  0.35703  0.63734  Biso   1.000  C 
  C52      1.0000 0.93440  0.63547  0.15442  Biso   1.000  C 
  C53      1.0000 0.43444  0.13526  0.14847  Biso   1.000  C 
  C54      1.0000 0.90119  0.63986  0.98597  Biso   1.000  C 
  C55      1.0000 0.40127  0.13972  0.97995  Biso   1.000  C 
  C56      1.0000 0.71812  0.24238  0.48930  Biso   1.000  C 
  Co1      1.0000 0.00616  0.54538  0.28487  Biso   1.000  Co
  Co2      1.0000 0.50612  0.04548  0.27979  Biso   1.000  Co
  Co3      1.0000 0.00559  0.51675  0.78672  Biso   1.000  Co
  Co4      1.0000 0.50572  0.01659  0.78074  Biso   1.000  Co
  H1       1.0000 0.40032  0.08585  0.67679  Biso   1.000  H 
  H2       1.0000 0.78551  0.71310  0.74460  Biso   1.000  H 
  H3       1.0000 0.28569  0.21372  0.73997  Biso   1.000  H 
  H4       1.0000 0.11312  0.58216  0.88673  Biso   1.000  H 
  H5       1.0000 0.66214  0.18109  0.75568  Biso   1.000  H 
  H6       1.0000 0.79560  0.27695  0.88974  Biso   1.000  H 
  H7       1.0000 0.07550  0.40254  0.76793  Biso   1.000  H 
  H8       1.0000 0.90030  0.58598  0.68286  Biso   1.000  H 
  H9       1.0000 0.21663  0.27841  0.67541  Biso   1.000  H 
  H10      1.0000 0.93296  0.40461  0.80832  Biso   1.000  H 
  H11      1.0000 0.61148  0.97647  0.38380  Biso   1.000  H 
  H12      1.0000 0.11173  0.47620  0.38745  Biso   1.000  H 
  H13      1.0000 0.43403  0.90381  0.80192  Biso   1.000  H 
  H14      1.0000 0.71647  0.77760  0.67763  Biso   1.000  H 
  H15      1.0000 0.39971  0.97810  0.17705  Biso   1.000  H 
  H16      1.0000 0.35154  0.87857  0.30452  Biso   1.000  H 
  H17      1.0000 0.85084  0.37970  0.30910  Biso   1.000  H 
  H18      1.0000 0.79505  0.78445  0.39077  Biso   1.000  H 
  H19      1.0000 0.57569  0.90245  0.76427  Biso   1.000  H 
  H20      1.0000 0.29553  0.28396  0.38790  Biso   1.000  H 
  H21      1.0000 0.72859  0.21041  0.82066  Biso   1.000  H 
  H22      1.0000 0.22644  0.34863  0.32337  Biso   1.000  H 
  H23      1.0000 0.72596  0.84890  0.32390  Biso   1.000  H 
  H24      1.0000 0.43614  0.15938  0.29714  Biso   1.000  H 
  H25      1.0000 0.78466  0.34999  0.24382  Biso   1.000  H 
  H26      1.0000 0.28551  0.84851  0.24020  Biso   1.000  H 
  H27      1.0000 0.21850  0.78181  0.17315  Biso   1.000  H 
  H28      1.0000 0.22955  0.70981  0.82078  Biso   1.000  H 
  H29      1.0000 0.93604  0.65961  0.30312  Biso   1.000  H 
  H30      1.0000 0.29662  0.77649  0.88776  Biso   1.000  H 
  H31      1.0000 0.71772  0.28340  0.17464  Biso   1.000  H 
  H32      1.0000 0.07966  0.65683  0.26136  Biso   1.000  H 
  H33      1.0000 0.57956  0.15719  0.25736  Biso   1.000  H 
  H34      1.0000 0.61272  0.08236  0.88285  Biso   1.000  H 
  H35      1.0000 0.16283  0.68070  0.75754  Biso   1.000  H 
  H36      1.0000 0.15972  0.37708  0.26105  Biso   1.000  H 
  H37      1.0000 0.65925  0.87713  0.26001  Biso   1.000  H 
  H38      1.0000 0.35239  0.18511  0.80269  Biso   1.000  H 
  H39      1.0000 0.89946  0.47886  0.18224  Biso   1.000  H 
  H40      1.0000 0.85227  0.68498  0.80813  Biso   1.000  H 
  N1       1.0000 0.46486  0.97062  0.60342  Biso   1.000  N 
  N2       1.0000 0.96430  0.47114  0.60953  Biso   1.000  N 
  N3       1.0000 0.95332  0.49490  0.41575  Biso   1.000  N 
  N4       1.0000 0.05704  0.49270  0.15731  Biso   1.000  N 
  N5       1.0000 0.55850  0.06709  0.65019  Biso   1.000  N 
  N6       1.0000 0.54760  0.09103  0.45665  Biso   1.000  N 
  N7       1.0000 0.45362  0.99442  0.41008  Biso   1.000  N 
  N8       1.0000 0.05859  0.56698  0.65524  Biso   1.000  N 
  N9       1.0000 0.15319  0.67370  0.60133  Biso   1.000  N 
  N10      1.0000 0.65262  0.17428  0.59916  Biso   1.000  N 
  N11      1.0000 0.04764  0.59089  0.46168  Biso   1.000  N 
  N12      1.0000 0.04518  0.46913  0.96565  Biso   1.000  N 
  N13      1.0000 0.36233  0.17799  0.95869  Biso   1.000  N 
  N14      1.0000 0.54540  0.96928  0.96057  Biso   1.000  N 
  N15      1.0000 0.55713  0.99298  0.15216  Biso   1.000  N 
  N16      1.0000 0.86030  0.38657  0.46566  Biso   1.000  N 
  N17      1.0000 0.96649  0.59299  0.10585  Biso   1.000  N 
  N18      1.0000 0.46643  0.09270  0.10003  Biso   1.000  N 
  N19      1.0000 0.36111  0.88556  0.46082  Biso   1.000  N 
  N20      1.0000 0.86218  0.67803  0.96427  Biso   1.000  N 
  N21      1.0000 0.64942  0.88409  0.10372  Biso   1.000  N 
  N22      1.0000 0.14969  0.38417  0.10518  Biso   1.000  N 
  N23      1.0000 0.45471  0.06915  0.90810  Biso   1.000  N 
  N24      1.0000 0.95478  0.56945  0.91392  Biso   1.000  N 
  O1       1.0000 0.16366  0.36112  0.73762  Biso   1.000  O 
  O2       1.0000 0.66714  0.19878  0.23209  Biso   1.000  O 
  O3       1.0000 0.16775  0.69739  0.23342  Biso   1.000  O 
  O4       1.0000 0.34699  0.86123  0.82824  Biso   1.000  O 
  O5       1.0000 0.84598  0.36181  0.83252  Biso   1.000  O 
  O6       1.0000 0.84800  0.70152  0.33128  Biso   1.000  O 
  O7       1.0000 0.66371  0.86061  0.73676  Biso   1.000  O 
  O8       1.0000 0.34833  0.20117  0.32611  Biso   1.000  O 
