data_image0
_cell_length_a       25.6433
_cell_length_b       24.8847
_cell_length_c       6.4585
_cell_angle_alpha    90.0015
_cell_angle_beta     85.6331
_cell_angle_gamma    90.0023

_symmetry_space_group_name_H-M    "P 1"
_symmetry_int_tables_number       1

loop_
  _symmetry_equiv_pos_as_xyz
  'x, y, z'

loop_
  _atom_site_label
  _atom_site_occupancy
  _atom_site_fract_x
  _atom_site_fract_y
  _atom_site_fract_z
  _atom_site_thermal_displace_type
  _atom_site_B_iso_or_equiv
  _atom_site_type_symbol
  C1       1.0000 0.29629  0.81752  0.57161  Biso   1.000  C 
  C2       1.0000 0.93095  0.43350  0.66572  Biso   1.000  C 
  C3       1.0000 0.41562  0.96420  0.34559  Biso   1.000  C 
  C4       1.0000 0.09552  0.46297  0.22098  Biso   1.000  C 
  C5       1.0000 0.59560  0.96333  0.21529  Biso   1.000  C 
  C6       1.0000 0.77652  0.28120  0.72628  Biso   1.000  C 
  C7       1.0000 0.23945  0.74308  0.68382  Biso   1.000  C 
  C8       1.0000 0.73838  0.24379  0.68455  Biso   1.000  C 
  C9       1.0000 0.21844  0.74164  0.48909  Biso   1.000  C 
  C10      1.0000 0.11143  0.42395  0.07212  Biso   1.000  C 
  C11      1.0000 0.07979  0.43235  0.90669  Biso   1.000  C 
  C12      1.0000 0.39979  0.92496  0.49362  Biso   1.000  C 
  C13      1.0000 0.57998  0.93231  0.90150  Biso   1.000  C 
  C14      1.0000 0.43159  0.93306  0.65885  Biso   1.000  C 
  C15      1.0000 0.73633  0.27995  0.33844  Biso   1.000  C 
  C16      1.0000 0.27537  0.81601  0.37672  Biso   1.000  C 
  C17      1.0000 0.23708  0.77859  0.33678  Biso   1.000  C 
  C18      1.0000 0.77447  0.31736  0.38017  Biso   1.000  C 
  C19      1.0000 0.79519  0.31853  0.57550  Biso   1.000  C 
  C20      1.0000 0.33711  0.85662  0.63166  Biso   1.000  C 
  C21      1.0000 0.83595  0.35754  0.63714  Biso   1.000  C 
  C22      1.0000 0.93210  0.62945  0.16513  Biso   1.000  C 
  C23      1.0000 0.43219  0.12936  0.15832  Biso   1.000  C 
  C24      1.0000 0.90049  0.63764  0.99939  Biso   1.000  C 
  C25      1.0000 0.40057  0.13762  0.99269  Biso   1.000  C 
  C26      1.0000 0.71761  0.24266  0.48930  Biso   1.000  C 
  C27      1.0000 0.89917  0.42560  0.50032  Biso   1.000  C 
  C28      1.0000 0.11362  0.63567  0.57005  Biso   1.000  C 
  C29      1.0000 0.61157  0.92412  0.06732  Biso   1.000  C 
  C30      1.0000 0.83678  0.70515  0.13682  Biso   1.000  C 
  C31      1.0000 0.33723  0.20525  0.13146  Biso   1.000  C 
  C32      1.0000 0.91531  0.46473  0.35226  Biso   1.000  C 
  C33      1.0000 0.59700  0.09699  0.71342  Biso   1.000  C 
  C34      1.0000 0.09728  0.59684  0.71904  Biso   1.000  C 
  C35      1.0000 0.23600  0.28193  0.83787  Biso   1.000  C 
  C36      1.0000 0.77505  0.74487  0.87982  Biso   1.000  C 
  C37      1.0000 0.27503  0.24525  0.87684  Biso   1.000  C 
  C38      1.0000 0.79541  0.74352  0.07582  Biso   1.000  C 
  C39      1.0000 0.61319  0.13608  0.56529  Biso   1.000  C 
  C40      1.0000 0.58132  0.12828  0.40009  Biso   1.000  C 
  C41      1.0000 0.08158  0.62792  0.40541  Biso   1.000  C 
  C42      1.0000 0.29570  0.24364  0.07222  Biso   1.000  C 
  C43      1.0000 0.77561  0.77990  0.22820  Biso   1.000  C 
  C44      1.0000 0.73618  0.78157  0.83904  Biso   1.000  C 
  C45      1.0000 0.73675  0.81658  0.18743  Biso   1.000  C 
  C46      1.0000 0.23706  0.31645  0.18683  Biso   1.000  C 
  C47      1.0000 0.27608  0.27978  0.22580  Biso   1.000  C 
  C48      1.0000 0.71639  0.81795  0.99143  Biso   1.000  C 
  C49      1.0000 0.21636  0.31804  0.99152  Biso   1.000  C 
  C50      1.0000 0.67501  0.85632  0.93044  Biso   1.000  C 
  C51      1.0000 0.17481  0.35643  0.93247  Biso   1.000  C 
  C52      1.0000 0.17730  0.70280  0.42989  Biso   1.000  C 
  C53      1.0000 0.67671  0.20379  0.42799  Biso   1.000  C 
  C54      1.0000 0.27772  0.78050  0.72374  Biso   1.000  C 
  C55      1.0000 0.41654  0.09851  0.84433  Biso   1.000  C 
  C56      1.0000 0.91653  0.59854  0.85111  Biso   1.000  C 
  Co1      1.0000 0.50620  0.01972  0.77934  Biso   1.000  Co
  Co2      1.0000 0.00611  0.51982  0.78614  Biso   1.000  Co
  Co3      1.0000 0.00607  0.54207  0.28625  Biso   1.000  Co
  Co4      1.0000 0.50601  0.04204  0.27989  Biso   1.000  Co
  H1       1.0000 0.29436  0.78163  0.87393  Biso   1.000  H 
  H2       1.0000 0.43233  0.15034  0.30501  Biso   1.000  H 
  H3       1.0000 0.72330  0.84413  0.31187  Biso   1.000  H 
  H4       1.0000 0.78704  0.34566  0.25710  Biso   1.000  H 
  H5       1.0000 0.28790  0.84405  0.25267  Biso   1.000  H 
  H6       1.0000 0.22043  0.77746  0.18657  Biso   1.000  H 
  H7       1.0000 0.22696  0.71496  0.80769  Biso   1.000  H 
  H8       1.0000 0.93218  0.65043  0.31184  Biso   1.000  H 
  H9       1.0000 0.71986  0.27910  0.18788  Biso   1.000  H 
  H10      1.0000 0.90151  0.47291  0.20051  Biso   1.000  H 
  H11      1.0000 0.58123  0.14938  0.25362  Biso   1.000  H 
  H12      1.0000 0.61085  0.08875  0.86504  Biso   1.000  H 
  H13      1.0000 0.16359  0.68044  0.73588  Biso   1.000  H 
  H14      1.0000 0.16102  0.37883  0.23831  Biso   1.000  H 
  H15      1.0000 0.66098  0.87933  0.23545  Biso   1.000  H 
  H16      1.0000 0.35094  0.18256  0.82588  Biso   1.000  H 
  H17      1.0000 0.85114  0.68257  0.83151  Biso   1.000  H 
  H18      1.0000 0.22376  0.34385  0.31204  Biso   1.000  H 
  H19      1.0000 0.08152  0.64887  0.25862  Biso   1.000  H 
  H20      1.0000 0.72581  0.21546  0.80756  Biso   1.000  H 
  H21      1.0000 0.79300  0.28205  0.87684  Biso   1.000  H 
  H22      1.0000 0.57983  0.91125  0.75496  Biso   1.000  H 
  H23      1.0000 0.29253  0.27858  0.37635  Biso   1.000  H 
  H24      1.0000 0.40276  0.09054  0.69236  Biso   1.000  H 
  H25      1.0000 0.78848  0.71730  0.75540  Biso   1.000  H 
  H26      1.0000 0.28834  0.21787  0.75158  Biso   1.000  H 
  H27      1.0000 0.66264  0.18092  0.73311  Biso   1.000  H 
  H28      1.0000 0.07959  0.41150  0.75974  Biso   1.000  H 
  H29      1.0000 0.90278  0.59055  0.69912  Biso   1.000  H 
  H30      1.0000 0.21958  0.28315  0.68726  Biso   1.000  H 
  H31      1.0000 0.11119  0.58869  0.87062  Biso   1.000  H 
  H32      1.0000 0.60935  0.97136  0.36725  Biso   1.000  H 
  H33      1.0000 0.10932  0.47077  0.37301  Biso   1.000  H 
  H34      1.0000 0.43187  0.91197  0.80526  Biso   1.000  H 
  H35      1.0000 0.72000  0.78259  0.68791  Biso   1.000  H 
  H36      1.0000 0.40173  0.97229  0.19394  Biso   1.000  H 
  H37      1.0000 0.35043  0.87979  0.32646  Biso   1.000  H 
  H38      1.0000 0.84981  0.38071  0.33230  Biso   1.000  H 
  H39      1.0000 0.93104  0.41242  0.81221  Biso   1.000  H 
  H40      1.0000 0.79180  0.77888  0.37929  Biso   1.000  H 
  N1       1.0000 0.55694  0.99292  0.14102  Biso   1.000  N 
  N2       1.0000 0.86018  0.38728  0.47877  Biso   1.000  N 
  N3       1.0000 0.96494  0.58810  0.11589  Biso   1.000  N 
  N4       1.0000 0.46495  0.08796  0.10901  Biso   1.000  N 
  N5       1.0000 0.15037  0.38549  0.09232  Biso   1.000  N 
  N6       1.0000 0.86154  0.67601  0.97794  Biso   1.000  N 
  N7       1.0000 0.65045  0.88570  0.08906  Biso   1.000  N 
  N8       1.0000 0.45524  0.06889  0.91822  Biso   1.000  N 
  N9       1.0000 0.54723  0.97376  0.95038  Biso   1.000  N 
  N10      1.0000 0.95527  0.56902  0.92509  Biso   1.000  N 
  N11      1.0000 0.36099  0.88640  0.47263  Biso   1.000  N 
  N12      1.0000 0.36161  0.17603  0.97195  Biso   1.000  N 
  N13      1.0000 0.45443  0.99371  0.41929  Biso   1.000  N 
  N14      1.0000 0.04821  0.58711  0.45592  Biso   1.000  N 
  N15      1.0000 0.04707  0.47375  0.95658  Biso   1.000  N 
  N16      1.0000 0.96400  0.47467  0.61645  Biso   1.000  N 
  N17      1.0000 0.95430  0.49397  0.42601  Biso   1.000  N 
  N18      1.0000 0.05683  0.49267  0.14749  Biso   1.000  N 
  N19      1.0000 0.46434  0.97445  0.60954  Biso   1.000  N 
  N20      1.0000 0.54816  0.08722  0.44958  Biso   1.000  N 
  N21      1.0000 0.05794  0.56789  0.64645  Biso   1.000  N 
  N22      1.0000 0.15301  0.67365  0.58983  Biso   1.000  N 
  N23      1.0000 0.65232  0.17427  0.58662  Biso   1.000  N 
  N24      1.0000 0.55790  0.06788  0.63992  Biso   1.000  N 
  O1       1.0000 0.66379  0.86091  0.74759  Biso   1.000  O 
  O2       1.0000 0.16334  0.36131  0.75006  Biso   1.000  O 
  O3       1.0000 0.66554  0.19907  0.24513  Biso   1.000  O 
  O4       1.0000 0.16583  0.69783  0.24749  Biso   1.000  O 
  O5       1.0000 0.34860  0.86137  0.81412  Biso   1.000  O 
  O6       1.0000 0.84710  0.36220  0.82007  Biso   1.000  O 
  O7       1.0000 0.84788  0.70039  0.31977  Biso   1.000  O 
  O8       1.0000 0.34874  0.20050  0.31390  Biso   1.000  O 
