data_image0
_cell_length_a       30.9365
_cell_length_b       17.7985
_cell_length_c       5.25809
_cell_angle_alpha    89.6473
_cell_angle_beta     89.0947
_cell_angle_gamma    89.8352

_symmetry_space_group_name_H-M    "P 1"
_symmetry_int_tables_number       1

loop_
  _symmetry_equiv_pos_as_xyz
  'x, y, z'

loop_
  _atom_site_label
  _atom_site_occupancy
  _atom_site_fract_x
  _atom_site_fract_y
  _atom_site_fract_z
  _atom_site_thermal_displace_type
  _atom_site_B_iso_or_equiv
  _atom_site_type_symbol
  C1       1.0000 0.29726  0.81178  0.57171  Biso   1.000  C 
  C2       1.0000 0.93493  0.39927  0.63616  Biso   1.000  C 
  C3       1.0000 0.42012  0.96166  0.27739  Biso   1.000  C 
  C4       1.0000 0.09108  0.45809  0.28695  Biso   1.000  C 
  C5       1.0000 0.59113  0.95832  0.28728  Biso   1.000  C 
  C6       1.0000 0.78004  0.25882  0.74293  Biso   1.000  C 
  C7       1.0000 0.24009  0.72590  0.70106  Biso   1.000  C 
  C8       1.0000 0.73974  0.22690  0.70284  Biso   1.000  C 
  C9       1.0000 0.21574  0.74753  0.48955  Biso   1.000  C 
  C10      1.0000 0.10737  0.40292  0.12114  Biso   1.000  C 
  C11      1.0000 0.07483  0.39150  0.94160  Biso   1.000  C 
  C12      1.0000 0.40364  0.90725  0.44726  Biso   1.000  C 
  C13      1.0000 0.57495  0.89165  0.94204  Biso   1.000  C 
  C14      1.0000 0.43512  0.89891  0.63552  Biso   1.000  C 
  C15      1.0000 0.73233  0.30223  0.32119  Biso   1.000  C 
  C16      1.0000 0.27294  0.83331  0.35992  Biso   1.000  C 
  C17      1.0000 0.23266  0.80133  0.31966  Biso   1.000  C 
  C18      1.0000 0.77264  0.33415  0.36127  Biso   1.000  C 
  C19      1.0000 0.79696  0.31260  0.57300  Biso   1.000  C 
  C20      1.0000 0.34000  0.84591  0.63141  Biso   1.000  C 
  C21      1.0000 0.83975  0.34662  0.63250  Biso   1.000  C 
  C22      1.0000 0.93761  0.66984  0.12470  Biso   1.000  C 
  C23      1.0000 0.43751  0.16973  0.12417  Biso   1.000  C 
  C24      1.0000 0.90517  0.65869  0.94428  Biso   1.000  C 
  C25      1.0000 0.40509  0.15854  0.94369  Biso   1.000  C 
  C26      1.0000 0.71539  0.24850  0.49124  Biso   1.000  C 
  C27      1.0000 0.90343  0.40774  0.44805  Biso   1.000  C 
  C28      1.0000 0.10916  0.65310  0.61727  Biso   1.000  C 
  C29      1.0000 0.60746  0.90312  0.12173  Biso   1.000  C 
  C30      1.0000 0.84112  0.71818  0.13055  Biso   1.000  C 
  C31      1.0000 0.34105  0.21811  0.12974  Biso   1.000  C 
  C32      1.0000 0.91998  0.46202  0.27794  Biso   1.000  C 
  C33      1.0000 0.59243  0.09942  0.78864  Biso   1.000  C 
  C34      1.0000 0.09258  0.59902  0.78812  Biso   1.000  C 
  C35      1.0000 0.23250  0.25859  0.82256  Biso   1.000  C 
  C36      1.0000 0.77339  0.72820  0.86303  Biso   1.000  C 
  C37      1.0000 0.27335  0.22820  0.86186  Biso   1.000  C 
  C38      1.0000 0.79770  0.75062  0.07254  Biso   1.000  C 
  C39      1.0000 0.60889  0.15372  0.61823  Biso   1.000  C 
  C40      1.0000 0.57730  0.16216  0.43067  Biso   1.000  C 
  C41      1.0000 0.07755  0.66167  0.42985  Biso   1.000  C 
  C42      1.0000 0.29765  0.25059  0.07149  Biso   1.000  C 
  C43      1.0000 0.78021  0.80371  0.24142  Biso   1.000  C 
  C44      1.0000 0.73254  0.75861  0.82378  Biso   1.000  C 
  C45      1.0000 0.73937  0.83414  0.20215  Biso   1.000  C 
  C46      1.0000 0.23929  0.33408  0.20100  Biso   1.000  C 
  C47      1.0000 0.28014  0.30367  0.24032  Biso   1.000  C 
  C48      1.0000 0.71505  0.81169  0.99267  Biso   1.000  C 
  C49      1.0000 0.21497  0.31163  0.99149  Biso   1.000  C 
  C50      1.0000 0.67160  0.84403  0.93485  Biso   1.000  C 
  C51      1.0000 0.17150  0.34391  0.93375  Biso   1.000  C 
  C52      1.0000 0.17287  0.71371  0.43090  Biso   1.000  C 
  C53      1.0000 0.67253  0.21466  0.43246  Biso   1.000  C 
  C54      1.0000 0.28036  0.75790  0.74139  Biso   1.000  C 
  C55      1.0000 0.42138  0.10322  0.77843  Biso   1.000  C 
  C56      1.0000 0.92145  0.60345  0.77872  Biso   1.000  C 
  Co1      1.0000 0.50674  0.00557  0.79504  Biso   1.000  Co
  Co2      1.0000 0.00671  0.50562  0.79514  Biso   1.000  Co
  Co3      1.0000 0.00570  0.55561  0.27228  Biso   1.000  Co
  Co4      1.0000 0.50567  0.05568  0.27232  Biso   1.000  Co
  H1       1.0000 0.29937  0.74158  0.90548  Biso   1.000  H 
  H2       1.0000 0.43778  0.20593  0.28884  Biso   1.000  H 
  H3       1.0000 0.72672  0.87598  0.33464  Biso   1.000  H 
  H4       1.0000 0.78487  0.37636  0.22742  Biso   1.000  H 
  H5       1.0000 0.28515  0.87558  0.22628  Biso   1.000  H 
  H6       1.0000 0.21363  0.81766  0.15565  Biso   1.000  H 
  H7       1.0000 0.22789  0.68358  0.83456  Biso   1.000  H 
  H8       1.0000 0.93789  0.70601  0.28945  Biso   1.000  H 
  H9       1.0000 0.71331  0.31856  0.15716  Biso   1.000  H 
  H10      1.0000 0.90639  0.48447  0.10429  Biso   1.000  H 
  H11      1.0000 0.57725  0.19719  0.26165  Biso   1.000  H 
  H12      1.0000 0.60608  0.07702  0.96218  Biso   1.000  H 
  H13      1.0000 0.16003  0.69834  0.81611  Biso   1.000  H 
  H14      1.0000 0.15909  0.35913  0.31906  Biso   1.000  H 
  H15      1.0000 0.65914  0.85935  0.32011  Biso   1.000  H 
  H16      1.0000 0.35360  0.20266  0.74461  Biso   1.000  H 
  H17      1.0000 0.85365  0.70279  0.74536  Biso   1.000  H 
  H18      1.0000 0.22664  0.37590  0.33358  Biso   1.000  H 
  H19      1.0000 0.07756  0.69661  0.26063  Biso   1.000  H 
  H20      1.0000 0.72751  0.18467  0.83657  Biso   1.000  H 
  H21      1.0000 0.79906  0.24249  0.90696  Biso   1.000  H 
  H22      1.0000 0.57467  0.85535  0.77758  Biso   1.000  H 
  H23      1.0000 0.29914  0.32067  0.40271  Biso   1.000  H 
  H24      1.0000 0.40701  0.07880  0.61126  Biso   1.000  H 
  H25      1.0000 0.78604  0.68636  0.73049  Biso   1.000  H 
  H26      1.0000 0.28600  0.18637  0.72933  Biso   1.000  H 
  H27      1.0000 0.65964  0.19922  0.81759  Biso   1.000  H 
  H28      1.0000 0.07453  0.35526  0.77702  Biso   1.000  H 
  H29      1.0000 0.90706  0.57907  0.61153  Biso   1.000  H 
  H30      1.0000 0.21350  0.24154  0.66018  Biso   1.000  H 
  H31      1.0000 0.10623  0.57662  0.96168  Biso   1.000  H 
  H32      1.0000 0.60559  0.98289  0.45395  Biso   1.000  H 
  H33      1.0000 0.10556  0.48260  0.45363  Biso   1.000  H 
  H34      1.0000 0.43510  0.86380  0.80435  Biso   1.000  H 
  H35      1.0000 0.71353  0.74159  0.66140  Biso   1.000  H 
  H36      1.0000 0.40652  0.98406  0.10369  Biso   1.000  H 
  H37      1.0000 0.35306  0.86150  0.24665  Biso   1.000  H 
  H38      1.0000 0.85278  0.36219  0.24767  Biso   1.000  H 
  H39      1.0000 0.93490  0.36419  0.80505  Biso   1.000  H 
  H40      1.0000 0.79922  0.82072  0.40376  Biso   1.000  H 
  N1       1.0000 0.55114  0.97774  0.21129  Biso   1.000  N 
  N2       1.0000 0.86365  0.37110  0.42812  Biso   1.000  N 
  N3       1.0000 0.97125  0.62449  0.06564  Biso   1.000  N 
  N4       1.0000 0.47115  0.12434  0.06542  Biso   1.000  N 
  N5       1.0000 0.14769  0.36755  0.13905  Biso   1.000  N 
  N6       1.0000 0.86494  0.69433  0.92557  Biso   1.000  N 
  N7       1.0000 0.64778  0.86776  0.14001  Biso   1.000  N 
  N8       1.0000 0.46129  0.08351  0.85533  Biso   1.000  N 
  N9       1.0000 0.54124  0.93680  0.00146  Biso   1.000  N 
  N10      1.0000 0.96137  0.58374  0.85538  Biso   1.000  N 
  N11      1.0000 0.36391  0.87045  0.42713  Biso   1.000  N 
  N12      1.0000 0.36487  0.19420  0.92486  Biso   1.000  N 
  N13      1.0000 0.45897  0.98410  0.36206  Biso   1.000  N 
  N14      1.0000 0.04433  0.61546  0.48847  Biso   1.000  N 
  N15      1.0000 0.04113  0.43667  0.00130  Biso   1.000  N 
  N16      1.0000 0.96808  0.44573  0.57857  Biso   1.000  N 
  N17      1.0000 0.95889  0.48427  0.36230  Biso   1.000  N 
  N18      1.0000 0.05108  0.47754  0.21121  Biso   1.000  N 
  N19      1.0000 0.46820  0.94556  0.57827  Biso   1.000  N 
  N20      1.0000 0.54418  0.11568  0.48879  Biso   1.000  N 
  N21      1.0000 0.05358  0.57696  0.70477  Biso   1.000  N 
  N22      1.0000 0.14903  0.68947  0.63591  Biso   1.000  N 
  N23      1.0000 0.64869  0.19033  0.63730  Biso   1.000  N 
  N24      1.0000 0.55349  0.07713  0.70490  Biso   1.000  N 
  O1       1.0000 0.65847  0.84878  0.71195  Biso   1.000  O 
  O2       1.0000 0.15836  0.34867  0.71088  Biso   1.000  O 
  O3       1.0000 0.65987  0.20936  0.20888  Biso   1.000  O 
  O4       1.0000 0.16017  0.70840  0.20739  Biso   1.000  O 
  O5       1.0000 0.35252  0.85130  0.85527  Biso   1.000  O 
  O6       1.0000 0.85230  0.35195  0.85630  Biso   1.000  O 
  O7       1.0000 0.85421  0.71342  0.35352  Biso   1.000  O 
  O8       1.0000 0.35412  0.21337  0.35275  Biso   1.000  O 
