data_image0
_cell_length_a       33.2789
_cell_length_b       10.5631
_cell_length_c       5.36816
_cell_angle_alpha    89.5173
_cell_angle_beta     90.9592
_cell_angle_gamma    89.6813

_symmetry_space_group_name_H-M    "P 1"
_symmetry_int_tables_number       1

loop_
  _symmetry_equiv_pos_as_xyz
  'x, y, z'

loop_
  _atom_site_label
  _atom_site_occupancy
  _atom_site_fract_x
  _atom_site_fract_y
  _atom_site_fract_z
  _atom_site_thermal_displace_type
  _atom_site_B_iso_or_equiv
  _atom_site_type_symbol
  C1       1.0000 0.29821  0.78587  0.57199  Biso   1.000  C 
  C2       1.0000 0.34228  0.26830  0.13043  Biso   1.000  C 
  C3       1.0000 0.60554  0.84160  0.12037  Biso   1.000  C 
  C4       1.0000 0.58702  0.13395  0.78991  Biso   1.000  C 
  C5       1.0000 0.08713  0.63305  0.78986  Biso   1.000  C 
  C6       1.0000 0.23909  0.21924  0.82756  Biso   1.000  C 
  C7       1.0000 0.78059  0.71497  0.86674  Biso   1.000  C 
  C8       1.0000 0.28053  0.21488  0.86665  Biso   1.000  C 
  C9       1.0000 0.79825  0.77699  0.07140  Biso   1.000  C 
  C10      1.0000 0.60567  0.21339  0.61619  Biso   1.000  C 
  C11      1.0000 0.29819  0.27692  0.07130  Biso   1.000  C 
  C12      1.0000 0.77355  0.84262  0.23610  Biso   1.000  C 
  C13      1.0000 0.73914  0.71938  0.82765  Biso   1.000  C 
  C14      1.0000 0.92546  0.42807  0.27595  Biso   1.000  C 
  C15      1.0000 0.23203  0.34692  0.19682  Biso   1.000  C 
  C16      1.0000 0.27348  0.34256  0.23592  Biso   1.000  C 
  C17      1.0000 0.73211  0.84704  0.19698  Biso   1.000  C 
  C18      1.0000 0.71444  0.78503  0.99233  Biso   1.000  C 
  C19      1.0000 0.21437  0.28484  0.99224  Biso   1.000  C 
  C20      1.0000 0.67034  0.79350  0.93368  Biso   1.000  C 
  C21      1.0000 0.17027  0.29317  0.93362  Biso   1.000  C 
  C22      1.0000 0.17063  0.76177  0.43093  Biso   1.000  C 
  C23      1.0000 0.67037  0.26376  0.43165  Biso   1.000  C 
  C24      1.0000 0.27399  0.71910  0.73862  Biso   1.000  C 
  C25      1.0000 0.42569  0.13845  0.77584  Biso   1.000  C 
  C26      1.0000 0.92575  0.63878  0.77581  Biso   1.000  C 
  C27      1.0000 0.84234  0.76841  0.13046  Biso   1.000  C 
  C28      1.0000 0.07590  0.31466  0.93814  Biso   1.000  C 
  C29      1.0000 0.07691  0.73479  0.42727  Biso   1.000  C 
  C30      1.0000 0.90664  0.34905  0.44970  Biso   1.000  C 
  C31      1.0000 0.93556  0.32644  0.63881  Biso   1.000  C 
  C32      1.0000 0.57667  0.23582  0.42754  Biso   1.000  C 
  C33      1.0000 0.08692  0.42218  0.28987  Biso   1.000  C 
  C34      1.0000 0.58700  0.92283  0.28968  Biso   1.000  C 
  C35      1.0000 0.77369  0.22112  0.73983  Biso   1.000  C 
  C36      1.0000 0.23263  0.71221  0.69852  Biso   1.000  C 
  C37      1.0000 0.73233  0.21432  0.69963  Biso   1.000  C 
  C38      1.0000 0.21457  0.77277  0.49077  Biso   1.000  C 
  C39      1.0000 0.10545  0.34103  0.12037  Biso   1.000  C 
  C40      1.0000 0.40688  0.84807  0.44922  Biso   1.000  C 
  C41      1.0000 0.57599  0.81506  0.93823  Biso   1.000  C 
  C42      1.0000 0.43581  0.82568  0.63835  Biso   1.000  C 
  C43      1.0000 0.42561  0.92746  0.27575  Biso   1.000  C 
  C44      1.0000 0.10590  0.71209  0.61591  Biso   1.000  C 
  C45      1.0000 0.23879  0.83940  0.32394  Biso   1.000  C 
  C46      1.0000 0.73853  0.34155  0.32508  Biso   1.000  C 
  C47      1.0000 0.28015  0.84628  0.36400  Biso   1.000  C 
  C48      1.0000 0.77989  0.34833  0.36528  Biso   1.000  C 
  C49      1.0000 0.79793  0.28778  0.57318  Biso   1.000  C 
  C50      1.0000 0.34211  0.79743  0.63261  Biso   1.000  C 
  C51      1.0000 0.84186  0.29897  0.63353  Biso   1.000  C 
  C52      1.0000 0.93669  0.74638  0.12752  Biso   1.000  C 
  C53      1.0000 0.43663  0.24618  0.12742  Biso   1.000  C 
  C54      1.0000 0.90720  0.72017  0.94477  Biso   1.000  C 
  C55      1.0000 0.40714  0.21985  0.94480  Biso   1.000  C 
  C56      1.0000 0.71430  0.27490  0.49178  Biso   1.000  C 
  Co1      1.0000 0.00603  0.57272  0.27077  Biso   1.000  Co
  Co2      1.0000 0.50604  0.07287  0.27071  Biso   1.000  Co
  Co3      1.0000 0.00662  0.48828  0.79592  Biso   1.000  Co
  Co4      1.0000 0.50663  0.98836  0.79579  Biso   1.000  Co
  H1       1.0000 0.09889  0.59379  0.96381  Biso   1.000  H 
  H2       1.0000 0.22532  0.17152  0.66870  Biso   1.000  H 
  H3       1.0000 0.78778  0.17467  0.90123  Biso   1.000  H 
  H4       1.0000 0.41346  0.09632  0.60749  Biso   1.000  H 
  H5       1.0000 0.28725  0.39019  0.39489  Biso   1.000  H 
  H6       1.0000 0.29901  0.16121  0.73843  Biso   1.000  H 
  H7       1.0000 0.07777  0.25864  0.77064  Biso   1.000  H 
  H8       1.0000 0.91352  0.59676  0.60735  Biso   1.000  H 
  H9       1.0000 0.79907  0.66134  0.73842  Biso   1.000  H 
  H10      1.0000 0.93340  0.27234  0.81023  Biso   1.000  H 
  H11      1.0000 0.43371  0.77142  0.80963  Biso   1.000  H 
  H12      1.0000 0.72536  0.67168  0.66879  Biso   1.000  H 
  H13      1.0000 0.41387  0.96667  0.10173  Biso   1.000  H 
  H14      1.0000 0.35462  0.80501  0.25630  Biso   1.000  H 
  H15      1.0000 0.85430  0.30664  0.25710  Biso   1.000  H 
  H16      1.0000 0.78733  0.89024  0.39506  Biso   1.000  H 
  H17      1.0000 0.57788  0.75891  0.77090  Biso   1.000  H 
  H18      1.0000 0.59923  0.96489  0.45808  Biso   1.000  H 
  H19      1.0000 0.09918  0.46412  0.45830  Biso   1.000  H 
  H20      1.0000 0.65801  0.25631  0.80820  Biso   1.000  H 
  H21      1.0000 0.29823  0.90058  0.23385  Biso   1.000  H 
  H22      1.0000 0.57870  0.29007  0.25622  Biso   1.000  H 
  H23      1.0000 0.22467  0.88579  0.16258  Biso   1.000  H 
  H24      1.0000 0.72444  0.38803  0.16372  Biso   1.000  H 
  H25      1.0000 0.28810  0.67271  0.90004  Biso   1.000  H 
  H26      1.0000 0.71423  0.16007  0.82971  Biso   1.000  H 
  H27      1.0000 0.71363  0.90066  0.32528  Biso   1.000  H 
  H28      1.0000 0.21455  0.65786  0.82862  Biso   1.000  H 
  H29      1.0000 0.93478  0.80252  0.29486  Biso   1.000  H 
  H30      1.0000 0.79799  0.40260  0.23519  Biso   1.000  H 
  H31      1.0000 0.43473  0.30235  0.29473  Biso   1.000  H 
  H32      1.0000 0.59883  0.09476  0.96377  Biso   1.000  H 
  H33      1.0000 0.15833  0.75426  0.80760  Biso   1.000  H 
  H34      1.0000 0.15834  0.30037  0.31070  Biso   1.000  H 
  H35      1.0000 0.65842  0.80084  0.31076  Biso   1.000  H 
  H36      1.0000 0.35434  0.26080  0.75358  Biso   1.000  H 
  H37      1.0000 0.85439  0.76116  0.75358  Biso   1.000  H 
  H38      1.0000 0.21354  0.40053  0.32513  Biso   1.000  H 
  H39      1.0000 0.91377  0.46728  0.10183  Biso   1.000  H 
  H40      1.0000 0.07902  0.78896  0.25590  Biso   1.000  H 
  N1       1.0000 0.46317  0.95174  0.35967  Biso   1.000  N 
  N2       1.0000 0.96945  0.38933  0.57935  Biso   1.000  N 
  N3       1.0000 0.96306  0.45197  0.35974  Biso   1.000  N 
  N4       1.0000 0.04870  0.44310  0.21235  Biso   1.000  N 
  N5       1.0000 0.04304  0.67188  0.48713  Biso   1.000  N 
  N6       1.0000 0.54289  0.17240  0.48723  Biso   1.000  N 
  N7       1.0000 0.64592  0.25110  0.63204  Biso   1.000  N 
  N8       1.0000 0.54944  0.10962  0.70655  Biso   1.000  N 
  N9       1.0000 0.46963  0.88903  0.57913  Biso   1.000  N 
  N10      1.0000 0.14620  0.74917  0.63149  Biso   1.000  N 
  N11      1.0000 0.04180  0.37682  0.99844  Biso   1.000  N 
  N12      1.0000 0.04951  0.60918  0.70660  Biso   1.000  N 
  N13      1.0000 0.46387  0.11747  0.85395  Biso   1.000  N 
  N14      1.0000 0.54878  0.94359  0.21215  Biso   1.000  N 
  N15      1.0000 0.64605  0.80511  0.13500  Biso   1.000  N 
  N16      1.0000 0.86635  0.31179  0.43340  Biso   1.000  N 
  N17      1.0000 0.97078  0.68399  0.06790  Biso   1.000  N 
  N18      1.0000 0.47073  0.18386  0.06771  Biso   1.000  N 
  N19      1.0000 0.36665  0.25656  0.92949  Biso   1.000  N 
  N20      1.0000 0.86671  0.75689  0.92949  Biso   1.000  N 
  N21      1.0000 0.96392  0.61767  0.85401  Biso   1.000  N 
  N22      1.0000 0.36663  0.81031  0.43266  Biso   1.000  N 
  N23      1.0000 0.14597  0.30460  0.13493  Biso   1.000  N 
  N24      1.0000 0.54188  0.87717  0.99844  Biso   1.000  N 
  O1       1.0000 0.35473  0.79818  0.85284  Biso   1.000  O 
  O2       1.0000 0.85453  0.29937  0.85366  Biso   1.000  O 
  O3       1.0000 0.85526  0.76870  0.34993  Biso   1.000  O 
  O4       1.0000 0.65734  0.79304  0.71437  Biso   1.000  O 
  O5       1.0000 0.15727  0.29275  0.71432  Biso   1.000  O 
  O6       1.0000 0.65766  0.26318  0.21161  Biso   1.000  O 
  O7       1.0000 0.15788  0.76139  0.21097  Biso   1.000  O 
  O8       1.0000 0.35520  0.26868  0.34989  Biso   1.000  O 
