data_image0
_cell_length_a       33.6508
_cell_length_b       7.03528
_cell_length_c       7.24198
_cell_angle_alpha    89.2772
_cell_angle_beta     92.2818
_cell_angle_gamma    92.7243

_symmetry_space_group_name_H-M    "P 1"
_symmetry_int_tables_number       1

loop_
  _symmetry_equiv_pos_as_xyz
  'x, y, z'

loop_
  _atom_site_label
  _atom_site_occupancy
  _atom_site_fract_x
  _atom_site_fract_y
  _atom_site_fract_z
  _atom_site_thermal_displace_type
  _atom_site_B_iso_or_equiv
  _atom_site_type_symbol
  C1       1.0000 0.29744  0.78005  0.57468  Biso   1.000  C 
  C2       1.0000 0.34180  0.34204  0.10163  Biso   1.000  C 
  C3       1.0000 0.60483  0.82059  0.04880  Biso   1.000  C 
  C4       1.0000 0.57821  0.28865  0.67511  Biso   1.000  C 
  C5       1.0000 0.07833  0.78555  0.67921  Biso   1.000  C 
  C6       1.0000 0.24069  0.14522  0.90615  Biso   1.000  C 
  C7       1.0000 0.78203  0.67171  0.93688  Biso   1.000  C 
  C8       1.0000 0.28176  0.16943  0.93548  Biso   1.000  C 
  C9       1.0000 0.79803  0.80745  0.06364  Biso   1.000  C 
  C10      1.0000 0.60455  0.28998  0.52967  Biso   1.000  C 
  C11      1.0000 0.29788  0.30533  0.06177  Biso   1.000  C 
  C12      1.0000 0.77167  0.91542  0.15878  Biso   1.000  C 
  C13      1.0000 0.74099  0.64792  0.90623  Biso   1.000  C 
  C14      1.0000 0.93440  0.27365  0.39029  Biso   1.000  C 
  C15      1.0000 0.23055  0.38862  0.12867  Biso   1.000  C 
  C16      1.0000 0.27161  0.41284  0.15796  Biso   1.000  C 
  C17      1.0000 0.73063  0.89164  0.12811  Biso   1.000  C 
  C18      1.0000 0.71463  0.75590  0.00139  Biso   1.000  C 
  C19      1.0000 0.21442  0.25285  0.00227  Biso   1.000  C 
  C20      1.0000 0.67075  0.71994  0.96030  Biso   1.000  C 
  C21      1.0000 0.17050  0.21674  0.96231  Biso   1.000  C 
  C22      1.0000 0.17196  0.75553  0.43399  Biso   1.000  C 
  C23      1.0000 0.67197  0.25909  0.43142  Biso   1.000  C 
  C24      1.0000 0.27018  0.71431  0.70516  Biso   1.000  C 
  C25      1.0000 0.43513  0.24853  0.87214  Biso   1.000  C 
  C26      1.0000 0.93533  0.74853  0.87647  Biso   1.000  C 
  C27      1.0000 0.84192  0.84328  0.10489  Biso   1.000  C 
  C28      1.0000 0.08325  0.38183  0.89519  Biso   1.000  C 
  C29      1.0000 0.08217  0.70634  0.38443  Biso   1.000  C 
  C30      1.0000 0.90798  0.27311  0.53545  Biso   1.000  C 
  C31      1.0000 0.93032  0.35386  0.68470  Biso   1.000  C 
  C32      1.0000 0.58220  0.20949  0.38036  Biso   1.000  C 
  C33      1.0000 0.07733  0.31205  0.19281  Biso   1.000  C 
  C34      1.0000 0.57736  0.81442  0.18919  Biso   1.000  C 
  C35      1.0000 0.76976  0.21620  0.70551  Biso   1.000  C 
  C36      1.0000 0.22939  0.71291  0.66287  Biso   1.000  C 
  C37      1.0000 0.72904  0.21556  0.66183  Biso   1.000  C 
  C38      1.0000 0.21527  0.77844  0.48962  Biso   1.000  C 
  C39      1.0000 0.10468  0.31775  0.05190  Biso   1.000  C 
  C40      1.0000 0.40818  0.77369  0.53160  Biso   1.000  C 
  C41      1.0000 0.58353  0.88501  0.89187  Biso   1.000  C 
  C42      1.0000 0.43055  0.85420  0.68089  Biso   1.000  C 
  C43      1.0000 0.43454  0.77518  0.38612  Biso   1.000  C 
  C44      1.0000 0.10462  0.78656  0.53354  Biso   1.000  C 
  C45      1.0000 0.24252  0.84408  0.35912  Biso   1.000  C 
  C46      1.0000 0.74273  0.34703  0.35882  Biso   1.000  C 
  C47      1.0000 0.28331  0.84538  0.40135  Biso   1.000  C 
  C48      1.0000 0.78346  0.34772  0.40250  Biso   1.000  C 
  C49      1.0000 0.79727  0.28173  0.57611  Biso   1.000  C 
  C50      1.0000 0.34074  0.80352  0.63041  Biso   1.000  C 
  C51      1.0000 0.84051  0.30425  0.63312  Biso   1.000  C 
  C52      1.0000 0.92914  0.67719  0.17359  Biso   1.000  C 
  C53      1.0000 0.42916  0.17817  0.16959  Biso   1.000  C 
  C54      1.0000 0.90786  0.74208  0.01681  Biso   1.000  C 
  C55      1.0000 0.40773  0.24206  0.01281  Biso   1.000  C 
  C56      1.0000 0.71523  0.28141  0.48820  Biso   1.000  C 
  Co1      1.0000 0.00555  0.50788  0.28525  Biso   1.000  Co
  Co2      1.0000 0.50563  0.00999  0.28114  Biso   1.000  Co
  Co3      1.0000 0.00697  0.55214  0.78430  Biso   1.000  Co
  Co4      1.0000 0.50707  0.05397  0.78016  Biso   1.000  Co
  H1       1.0000 0.08362  0.83418  0.82010  Biso   1.000  H 
  H2       1.0000 0.22840  0.04061  0.80752  Biso   1.000  H 
  H3       1.0000 0.78038  0.16591  0.84082  Biso   1.000  H 
  H4       1.0000 0.43072  0.28766  0.72757  Biso   1.000  H 
  H5       1.0000 0.28392  0.51741  0.25657  Biso   1.000  H 
  H6       1.0000 0.30070  0.07740  0.86089  Biso   1.000  H 
  H7       1.0000 0.09293  0.40637  0.75552  Biso   1.000  H 
  H8       1.0000 0.93107  0.78836  0.73199  Biso   1.000  H 
  H9       1.0000 0.80103  0.57931  0.86302  Biso   1.000  H 
  H10      1.0000 0.92137  0.37845  0.82373  Biso   1.000  H 
  H11      1.0000 0.42168  0.87809  0.82015  Biso   1.000  H 
  H12      1.0000 0.72880  0.54325  0.80739  Biso   1.000  H 
  H13      1.0000 0.42936  0.72676  0.24508  Biso   1.000  H 
  H14      1.0000 0.35706  0.63757  0.41362  Biso   1.000  H 
  H15      1.0000 0.85688  0.13751  0.41702  Biso   1.000  H 
  H16      1.0000 0.78385  0.01998  0.25770  Biso   1.000  H 
  H17      1.0000 0.59334  0.91005  0.75248  Biso   1.000  H 
  H18      1.0000 0.58161  0.77504  0.33379  Biso   1.000  H 
  H19      1.0000 0.08174  0.27298  0.33742  Biso   1.000  H 
  H20      1.0000 0.65570  0.42546  0.64797  Biso   1.000  H 
  H21      1.0000 0.30429  0.89973  0.30006  Biso   1.000  H 
  H22      1.0000 0.59108  0.18565  0.24109  Biso   1.000  H 
  H23      1.0000 0.23163  0.89393  0.22408  Biso   1.000  H 
  H24      1.0000 0.73211  0.39762  0.22358  Biso   1.000  H 
  H25      1.0000 0.28106  0.66427  0.84015  Biso   1.000  H 
  H26      1.0000 0.70787  0.16146  0.76231  Biso   1.000  H 
  H27      1.0000 0.71161  0.98393  0.20198  Biso   1.000  H 
  H28      1.0000 0.20842  0.65824  0.76401  Biso   1.000  H 
  H29      1.0000 0.91929  0.65184  0.31289  Biso   1.000  H 
  H30      1.0000 0.80462  0.40226  0.30212  Biso   1.000  H 
  H31      1.0000 0.41942  0.15293  0.30907  Biso   1.000  H 
  H32      1.0000 0.58343  0.33732  0.81603  Biso   1.000  H 
  H33      1.0000 0.15587  0.92176  0.65094  Biso   1.000  H 
  H34      1.0000 0.15862  0.39120  0.17697  Biso   1.000  H 
  H35      1.0000 0.65868  0.89427  0.17477  Biso   1.000  H 
  H36      1.0000 0.35385  0.16666  0.88780  Biso   1.000  H 
  H37      1.0000 0.85400  0.66884  0.89056  Biso   1.000  H 
  H38      1.0000 0.21162  0.48067  0.20326  Biso   1.000  H 
  H39      1.0000 0.92922  0.22475  0.24941  Biso   1.000  H 
  H40      1.0000 0.09101  0.68232  0.24514  Biso   1.000  H 
  N1       1.0000 0.46998  0.85824  0.44354  Biso   1.000  N 
  N2       1.0000 0.96725  0.40570  0.62943  Biso   1.000  N 
  N3       1.0000 0.96986  0.35646  0.44777  Biso   1.000  N 
  N4       1.0000 0.04216  0.37562  0.12657  Biso   1.000  N 
  N5       1.0000 0.04528  0.65432  0.44013  Biso   1.000  N 
  N6       1.0000 0.54531  0.15701  0.43585  Biso   1.000  N 
  N7       1.0000 0.64555  0.33758  0.54188  Biso   1.000  N 
  N8       1.0000 0.54276  0.20558  0.61774  Biso   1.000  N 
  N9       1.0000 0.46743  0.90674  0.62543  Biso   1.000  N 
  N10      1.0000 0.14564  0.83370  0.54514  Biso   1.000  N 
  N11      1.0000 0.04588  0.41824  0.94226  Biso   1.000  N 
  N12      1.0000 0.04282  0.70295  0.62204  Biso   1.000  N 
  N13      1.0000 0.47036  0.18571  0.93859  Biso   1.000  N 
  N14      1.0000 0.54223  0.87795  0.12245  Biso   1.000  N 
  N15      1.0000 0.64623  0.80497  0.07585  Biso   1.000  N 
  N16      1.0000 0.86698  0.22569  0.52298  Biso   1.000  N 
  N17      1.0000 0.96656  0.64107  0.12707  Biso   1.000  N 
  N18      1.0000 0.46660  0.14273  0.12283  Biso   1.000  N 
  N19      1.0000 0.36628  0.25669  0.98616  Biso   1.000  N 
  N20      1.0000 0.86645  0.75783  0.98971  Biso   1.000  N 
  N21      1.0000 0.97045  0.68467  0.94305  Biso   1.000  N 
  N22      1.0000 0.36719  0.72570  0.51957  Biso   1.000  N 
  N23      1.0000 0.14609  0.30196  0.07822  Biso   1.000  N 
  N24      1.0000 0.54610  0.92109  0.93834  Biso   1.000  N 
  O1       1.0000 0.35100  0.89932  0.77009  Biso   1.000  O 
  O2       1.0000 0.85072  0.39990  0.77297  Biso   1.000  O 
  O3       1.0000 0.85477  0.94492  0.23614  Biso   1.000  O 
  O4       1.0000 0.65788  0.61850  0.82893  Biso   1.000  O 
  O5       1.0000 0.15750  0.11509  0.83131  Biso   1.000  O 
  O6       1.0000 0.66170  0.16359  0.29157  Biso   1.000  O 
  O7       1.0000 0.16162  0.66012  0.29418  Biso   1.000  O 
  O8       1.0000 0.35471  0.44453  0.23217  Biso   1.000  O 
