data_image0
_cell_length_a       33.6452
_cell_length_b       5.8891
_cell_length_c       6.67116
_cell_angle_alpha    75.2644
_cell_angle_beta     88.1095
_cell_angle_gamma    98.4431

_symmetry_space_group_name_H-M    "P 1"
_symmetry_int_tables_number       1

loop_
  _symmetry_equiv_pos_as_xyz
  'x, y, z'

loop_
  _atom_site_label
  _atom_site_occupancy
  _atom_site_fract_x
  _atom_site_fract_y
  _atom_site_fract_z
  _atom_site_thermal_displace_type
  _atom_site_B_iso_or_equiv
  _atom_site_type_symbol
  C1       1.0000 0.29600  0.78096  0.58742  Biso   1.000  C 
  C2       1.0000 0.92451  0.27887  0.73563  Biso   1.000  C 
  C3       1.0000 0.08818  0.78330  0.32915  Biso   1.000  C 
  C4       1.0000 0.08110  0.33872  0.21040  Biso   1.000  C 
  C5       1.0000 0.58110  0.83890  0.20949  Biso   1.000  C 
  C6       1.0000 0.76573  0.29339  0.73123  Biso   1.000  C 
  C7       1.0000 0.22619  0.79116  0.67899  Biso   1.000  C 
  C8       1.0000 0.72619  0.29142  0.67871  Biso   1.000  C 
  C9       1.0000 0.21660  0.77801  0.47913  Biso   1.000  C 
  C10      1.0000 0.10590  0.32150  0.04379  Biso   1.000  C 
  C11      1.0000 0.42457  0.77939  0.73513  Biso   1.000  C 
  C12      1.0000 0.43339  0.70465  0.42725  Biso   1.000  C 
  C13      1.0000 0.10906  0.85685  0.48579  Biso   1.000  C 
  C14      1.0000 0.58828  0.28361  0.32838  Biso   1.000  C 
  C15      1.0000 0.74689  0.26559  0.33515  Biso   1.000  C 
  C16      1.0000 0.28641  0.76770  0.38765  Biso   1.000  C 
  C17      1.0000 0.24685  0.76547  0.33534  Biso   1.000  C 
  C18      1.0000 0.78644  0.26770  0.38763  Biso   1.000  C 
  C19      1.0000 0.79600  0.28092  0.58747  Biso   1.000  C 
  C20      1.0000 0.33750  0.78569  0.65541  Biso   1.000  C 
  C21      1.0000 0.83747  0.28537  0.65568  Biso   1.000  C 
  C22      1.0000 0.93124  0.72276  0.18760  Biso   1.000  C 
  C23      1.0000 0.43133  0.22317  0.18721  Biso   1.000  C 
  C24      1.0000 0.90656  0.74013  0.02098  Biso   1.000  C 
  C25      1.0000 0.40661  0.24057  0.02074  Biso   1.000  C 
  C26      1.0000 0.71663  0.27821  0.47885  Biso   1.000  C 
  C27      1.0000 0.90363  0.20489  0.57920  Biso   1.000  C 
  C28      1.0000 0.29732  0.29777  0.07446  Biso   1.000  C 
  C29      1.0000 0.58136  0.84100  0.87577  Biso   1.000  C 
  C30      1.0000 0.84020  0.81923  0.12856  Biso   1.000  C 
  C31      1.0000 0.34024  0.31942  0.12861  Biso   1.000  C 
  C32      1.0000 0.40366  0.70526  0.57883  Biso   1.000  C 
  C33      1.0000 0.57936  0.35952  0.63573  Biso   1.000  C 
  C34      1.0000 0.07931  0.85822  0.63695  Biso   1.000  C 
  C35      1.0000 0.24449  0.24705  0.84366  Biso   1.000  C 
  C36      1.0000 0.78493  0.76403  0.88347  Biso   1.000  C 
  C37      1.0000 0.28492  0.26404  0.88368  Biso   1.000  C 
  C38      1.0000 0.79730  0.79779  0.07429  Biso   1.000  C 
  C39      1.0000 0.60913  0.35760  0.48489  Biso   1.000  C 
  C40      1.0000 0.76792  0.81189  0.22196  Biso   1.000  C 
  C41      1.0000 0.74451  0.74716  0.84327  Biso   1.000  C 
  C42      1.0000 0.93337  0.20429  0.42770  Biso   1.000  C 
  C43      1.0000 0.60594  0.82212  0.04287  Biso   1.000  C 
  C44      1.0000 0.08126  0.33981  0.87688  Biso   1.000  C 
  C45      1.0000 0.72749  0.79500  0.18179  Biso   1.000  C 
  C46      1.0000 0.22752  0.29481  0.18221  Biso   1.000  C 
  C47      1.0000 0.26795  0.31176  0.22224  Biso   1.000  C 
  C48      1.0000 0.71512  0.76141  0.99091  Biso   1.000  C 
  C49      1.0000 0.21512  0.26121  0.99139  Biso   1.000  C 
  C50      1.0000 0.67223  0.74097  0.93632  Biso   1.000  C 
  C51      1.0000 0.17219  0.24052  0.93705  Biso   1.000  C 
  C52      1.0000 0.17514  0.77416  0.41066  Biso   1.000  C 
  C53      1.0000 0.67518  0.27445  0.41027  Biso   1.000  C 
  C54      1.0000 0.26575  0.79328  0.73132  Biso   1.000  C 
  C55      1.0000 0.43138  0.22388  0.85382  Biso   1.000  C 
  C56      1.0000 0.93137  0.72360  0.85419  Biso   1.000  C 
  Co1      1.0000 0.00484  0.53680  0.77966  Biso   1.000  Co
  Co2      1.0000 0.50491  0.03781  0.77840  Biso   1.000  Co
  Co3      1.0000 0.50779  0.02736  0.28417  Biso   1.000  Co
  Co4      1.0000 0.00773  0.52720  0.28462  Biso   1.000  Co
  H1       1.0000 0.42439  0.22546  0.34616  Biso   1.000  H 
  H2       1.0000 0.80983  0.26378  0.27203  Biso   1.000  H 
  H3       1.0000 0.30978  0.76382  0.27198  Biso   1.000  H 
  H4       1.0000 0.73874  0.26126  0.17975  Biso   1.000  H 
  H5       1.0000 0.23868  0.76105  0.17998  Biso   1.000  H 
  H6       1.0000 0.70279  0.29560  0.79421  Biso   1.000  H 
  H7       1.0000 0.20282  0.79519  0.79466  Biso   1.000  H 
  H8       1.0000 0.92424  0.72480  0.34654  Biso   1.000  H 
  H9       1.0000 0.27392  0.79774  0.88669  Biso   1.000  H 
  H10      1.0000 0.93023  0.16125  0.27971  Biso   1.000  H 
  H11      1.0000 0.15936  0.40796  0.16039  Biso   1.000  H 
  H12      1.0000 0.65939  0.90827  0.15974  Biso   1.000  H 
  H13      1.0000 0.35314  0.15240  0.90509  Biso   1.000  H 
  H14      1.0000 0.85307  0.65195  0.90527  Biso   1.000  H 
  H15      1.0000 0.20576  0.30426  0.30319  Biso   1.000  H 
  H16      1.0000 0.09986  0.76620  0.18210  Biso   1.000  H 
  H17      1.0000 0.59997  0.26614  0.18152  Biso   1.000  H 
  H18      1.0000 0.58249  0.40252  0.78372  Biso   1.000  H 
  H19      1.0000 0.16098  0.97349  0.61249  Biso   1.000  H 
  H20      1.0000 0.70573  0.80453  0.30268  Biso   1.000  H 
  H21      1.0000 0.27736  0.33045  0.37231  Biso   1.000  H 
  H22      1.0000 0.41292  0.79632  0.88228  Biso   1.000  H 
  H23      1.0000 0.30666  0.25478  0.76259  Biso   1.000  H 
  H24      1.0000 0.80669  0.75474  0.76245  Biso   1.000  H 
  H25      1.0000 0.08244  0.90111  0.78501  Biso   1.000  H 
  H26      1.0000 0.66105  0.47423  0.61170  Biso   1.000  H 
  H27      1.0000 0.77388  0.29781  0.88664  Biso   1.000  H 
  H28      1.0000 0.08822  0.33743  0.71795  Biso   1.000  H 
  H29      1.0000 0.92394  0.73103  0.69645  Biso   1.000  H 
  H30      1.0000 0.42391  0.23134  0.69610  Biso   1.000  H 
  H31      1.0000 0.23509  0.22849  0.69353  Biso   1.000  H 
  H32      1.0000 0.73513  0.72868  0.69308  Biso   1.000  H 
  H33      1.0000 0.43022  0.66183  0.27920  Biso   1.000  H 
  H34      1.0000 0.35171  0.58723  0.45305  Biso   1.000  H 
  H35      1.0000 0.85168  0.08702  0.45329  Biso   1.000  H 
  H36      1.0000 0.77731  0.83052  0.37207  Biso   1.000  H 
  H37      1.0000 0.58837  0.83902  0.71680  Biso   1.000  H 
  H38      1.0000 0.58843  0.83039  0.36753  Biso   1.000  H 
  H39      1.0000 0.91287  0.29561  0.88285  Biso   1.000  H 
  H40      1.0000 0.08847  0.33071  0.36830  Biso   1.000  H 
  N1       1.0000 0.46787  0.18760  0.91822  Biso   1.000  N 
  N2       1.0000 0.86215  0.17363  0.56200  Biso   1.000  N 
  N3       1.0000 0.96813  0.68958  0.12280  Biso   1.000  N 
  N4       1.0000 0.46820  0.18983  0.12220  Biso   1.000  N 
  N5       1.0000 0.54472  0.87666  0.14440  Biso   1.000  N 
  N6       1.0000 0.86537  0.74389  0.00624  Biso   1.000  N 
  N7       1.0000 0.14706  0.31656  0.05905  Biso   1.000  N 
  N8       1.0000 0.54451  0.87527  0.94024  Biso   1.000  N 
  N9       1.0000 0.36541  0.24434  0.00612  Biso   1.000  N 
  N10      1.0000 0.36217  0.67399  0.56169  Biso   1.000  N 
  N11      1.0000 0.64710  0.81698  0.05832  Biso   1.000  N 
  N12      1.0000 0.96784  0.68739  0.91882  Biso   1.000  N 
  N13      1.0000 0.54294  0.27828  0.57719  Biso   1.000  N 
  N14      1.0000 0.46981  0.78671  0.48524  Biso   1.000  N 
  N15      1.0000 0.65059  0.38742  0.50306  Biso   1.000  N 
  N16      1.0000 0.96412  0.33433  0.67394  Biso   1.000  N 
  N17      1.0000 0.96978  0.28637  0.48579  Biso   1.000  N 
  N18      1.0000 0.04469  0.37610  0.14546  Biso   1.000  N 
  N19      1.0000 0.04288  0.77703  0.57844  Biso   1.000  N 
  N20      1.0000 0.54863  0.22956  0.38936  Biso   1.000  N 
  N21      1.0000 0.15054  0.88681  0.50374  Biso   1.000  N 
  N22      1.0000 0.04442  0.37406  0.94147  Biso   1.000  N 
  N23      1.0000 0.04854  0.72894  0.39033  Biso   1.000  N 
  N24      1.0000 0.46417  0.83476  0.67337  Biso   1.000  N 
  O1       1.0000 0.16046  0.16085  0.78830  Biso   1.000  O 
  O2       1.0000 0.66416  0.17317  0.27297  Biso   1.000  O 
  O3       1.0000 0.16411  0.67319  0.27316  Biso   1.000  O 
  O4       1.0000 0.34851  0.88680  0.79283  Biso   1.000  O 
  O5       1.0000 0.84848  0.38633  0.79320  Biso   1.000  O 
  O6       1.0000 0.85187  0.89911  0.27728  Biso   1.000  O 
  O7       1.0000 0.66052  0.66154  0.78741  Biso   1.000  O 
  O8       1.0000 0.35192  0.39919  0.27737  Biso   1.000  O 
