data_image0
_cell_length_a       32.7873
_cell_length_b       12.8936
_cell_length_c       5.28254
_cell_angle_alpha    89.6586
_cell_angle_beta     90.4772
_cell_angle_gamma    89.7016

_symmetry_space_group_name_H-M    "P 1"
_symmetry_int_tables_number       1

loop_
  _symmetry_equiv_pos_as_xyz
  'x, y, z'

loop_
  _atom_site_label
  _atom_site_occupancy
  _atom_site_fract_x
  _atom_site_fract_y
  _atom_site_fract_z
  _atom_site_thermal_displace_type
  _atom_site_B_iso_or_equiv
  _atom_site_type_symbol
  C1       1.0000 0.29810  0.79842  0.57213  Biso   1.000  C 
  C2       1.0000 0.93572  0.35867  0.63599  Biso   1.000  C 
  C3       1.0000 0.10636  0.68537  0.61801  Biso   1.000  C 
  C4       1.0000 0.08772  0.43932  0.29196  Biso   1.000  C 
  C5       1.0000 0.58779  0.93960  0.29213  Biso   1.000  C 
  C6       1.0000 0.77589  0.23797  0.74334  Biso   1.000  C 
  C7       1.0000 0.23478  0.71828  0.70219  Biso   1.000  C 
  C8       1.0000 0.73458  0.21928  0.70324  Biso   1.000  C 
  C9       1.0000 0.21454  0.76152  0.49081  Biso   1.000  C 
  C10      1.0000 0.10564  0.36958  0.12241  Biso   1.000  C 
  C11      1.0000 0.40624  0.87531  0.44594  Biso   1.000  C 
  C12      1.0000 0.57549  0.84898  0.93985  Biso   1.000  C 
  C13      1.0000 0.43589  0.85812  0.63553  Biso   1.000  C 
  C14      1.0000 0.42427  0.94350  0.27210  Biso   1.000  C 
  C15      1.0000 0.27787  0.84159  0.36068  Biso   1.000  C 
  C16      1.0000 0.23656  0.82300  0.32063  Biso   1.000  C 
  C17      1.0000 0.73632  0.32420  0.32202  Biso   1.000  C 
  C18      1.0000 0.77763  0.34290  0.36210  Biso   1.000  C 
  C19      1.0000 0.79788  0.29964  0.57339  Biso   1.000  C 
  C20      1.0000 0.34190  0.82024  0.63198  Biso   1.000  C 
  C21      1.0000 0.84169  0.32143  0.63305  Biso   1.000  C 
  C22      1.0000 0.93738  0.71247  0.12522  Biso   1.000  C 
  C23      1.0000 0.43724  0.21211  0.12502  Biso   1.000  C 
  C24      1.0000 0.90709  0.69197  0.94248  Biso   1.000  C 
  C25      1.0000 0.40698  0.19152  0.94209  Biso   1.000  C 
  C26      1.0000 0.71434  0.26253  0.49193  Biso   1.000  C 
  C27      1.0000 0.90607  0.37595  0.44647  Biso   1.000  C 
  C28      1.0000 0.57655  0.20291  0.42938  Biso   1.000  C 
  C29      1.0000 0.07539  0.34882  0.93954  Biso   1.000  C 
  C30      1.0000 0.84257  0.74507  0.13122  Biso   1.000  C 
  C31      1.0000 0.34247  0.24472  0.13062  Biso   1.000  C 
  C32      1.0000 0.60573  0.86985  0.12268  Biso   1.000  C 
  C33      1.0000 0.58824  0.11766  0.79290  Biso   1.000  C 
  C34      1.0000 0.08833  0.61736  0.79227  Biso   1.000  C 
  C35      1.0000 0.23684  0.23610  0.82451  Biso   1.000  C 
  C36      1.0000 0.77848  0.71975  0.86437  Biso   1.000  C 
  C37      1.0000 0.27838  0.21952  0.86381  Biso   1.000  C 
  C38      1.0000 0.79843  0.76450  0.07291  Biso   1.000  C 
  C39      1.0000 0.60623  0.18583  0.61884  Biso   1.000  C 
  C40      1.0000 0.07667  0.70255  0.42866  Biso   1.000  C 
  C41      1.0000 0.29834  0.26423  0.07235  Biso   1.000  C 
  C42      1.0000 0.77590  0.82535  0.24131  Biso   1.000  C 
  C43      1.0000 0.73693  0.73630  0.82510  Biso   1.000  C 
  C44      1.0000 0.92417  0.44385  0.27219  Biso   1.000  C 
  C45      1.0000 0.23427  0.34164  0.20155  Biso   1.000  C 
  C46      1.0000 0.27582  0.32508  0.24078  Biso   1.000  C 
  C47      1.0000 0.73435  0.84188  0.20208  Biso   1.000  C 
  C48      1.0000 0.71441  0.79723  0.99334  Biso   1.000  C 
  C49      1.0000 0.21432  0.29702  0.99281  Biso   1.000  C 
  C50      1.0000 0.67030  0.81680  0.93464  Biso   1.000  C 
  C51      1.0000 0.17021  0.31658  0.93422  Biso   1.000  C 
  C52      1.0000 0.17071  0.73996  0.43132  Biso   1.000  C 
  C53      1.0000 0.67053  0.24084  0.43235  Biso   1.000  C 
  C54      1.0000 0.27609  0.73685  0.74217  Biso   1.000  C 
  C55      1.0000 0.42486  0.12169  0.77252  Biso   1.000  C 
  C56      1.0000 0.92491  0.62210  0.77280  Biso   1.000  C 
  Co1      1.0000 0.00675  0.49538  0.79465  Biso   1.000  Co
  Co2      1.0000 0.50677  0.99527  0.79481  Biso   1.000  Co
  Co3      1.0000 0.50584  0.06551  0.27051  Biso   1.000  Co
  Co4      1.0000 0.00584  0.56544  0.27024  Biso   1.000  Co
  H1       1.0000 0.72049  0.35729  0.15813  Biso   1.000  H 
  H2       1.0000 0.29191  0.70380  0.90610  Biso   1.000  H 
  H3       1.0000 0.71829  0.16993  0.83640  Biso   1.000  H 
  H4       1.0000 0.43596  0.25976  0.29294  Biso   1.000  H 
  H5       1.0000 0.71761  0.89074  0.33372  Biso   1.000  H 
  H6       1.0000 0.29418  0.89087  0.22745  Biso   1.000  H 
  H7       1.0000 0.21845  0.66902  0.83543  Biso   1.000  H 
  H8       1.0000 0.93615  0.76012  0.29315  Biso   1.000  H 
  H9       1.0000 0.79393  0.39226  0.22899  Biso   1.000  H 
  H10      1.0000 0.91192  0.47611  0.09725  Biso   1.000  H 
  H11      1.0000 0.60056  0.08543  0.96767  Biso   1.000  H 
  H12      1.0000 0.15815  0.72904  0.81458  Biso   1.000  H 
  H13      1.0000 0.15803  0.32771  0.31785  Biso   1.000  H 
  H14      1.0000 0.65812  0.82804  0.31824  Biso   1.000  H 
  H15      1.0000 0.35458  0.23352  0.74688  Biso   1.000  H 
  H16      1.0000 0.85467  0.73400  0.74750  Biso   1.000  H 
  H17      1.0000 0.21751  0.39049  0.33320  Biso   1.000  H 
  H18      1.0000 0.07811  0.74843  0.25669  Biso   1.000  H 
  H19      1.0000 0.57797  0.24887  0.25753  Biso   1.000  H 
  H20      1.0000 0.22073  0.85605  0.15667  Biso   1.000  H 
  H21      1.0000 0.65798  0.22970  0.81561  Biso   1.000  H 
  H22      1.0000 0.60058  0.97462  0.46105  Biso   1.000  H 
  H23      1.0000 0.79173  0.20487  0.90720  Biso   1.000  H 
  H24      1.0000 0.22123  0.20188  0.66268  Biso   1.000  H 
  H25      1.0000 0.41202  0.08683  0.60350  Biso   1.000  H 
  H26      1.0000 0.29142  0.35927  0.40271  Biso   1.000  H 
  H27      1.0000 0.29511  0.17054  0.73233  Biso   1.000  H 
  H28      1.0000 0.07669  0.30115  0.77167  Biso   1.000  H 
  H29      1.0000 0.91202  0.58732  0.60386  Biso   1.000  H 
  H30      1.0000 0.10065  0.58513  0.96705  Biso   1.000  H 
  H31      1.0000 0.79521  0.67077  0.73295  Biso   1.000  H 
  H32      1.0000 0.10053  0.47427  0.46093  Biso   1.000  H 
  H33      1.0000 0.43442  0.81210  0.80727  Biso   1.000  H 
  H34      1.0000 0.72132  0.70206  0.66332  Biso   1.000  H 
  H35      1.0000 0.41199  0.97581  0.09730  Biso   1.000  H 
  H36      1.0000 0.35451  0.83143  0.24884  Biso   1.000  H 
  H37      1.0000 0.85425  0.33245  0.24980  Biso   1.000  H 
  H38      1.0000 0.79151  0.85955  0.40318  Biso   1.000  H 
  H39      1.0000 0.93423  0.31280  0.80795  Biso   1.000  H 
  H40      1.0000 0.57681  0.80129  0.77202  Biso   1.000  H 
  N1       1.0000 0.36665  0.22725  0.92596  Biso   1.000  N 
  N2       1.0000 0.86600  0.33950  0.42925  Biso   1.000  N 
  N3       1.0000 0.97124  0.65816  0.06437  Biso   1.000  N 
  N4       1.0000 0.47113  0.15788  0.06438  Biso   1.000  N 
  N5       1.0000 0.54154  0.90294  0.00050  Biso   1.000  N 
  N6       1.0000 0.86676  0.72774  0.92655  Biso   1.000  N 
  N7       1.0000 0.46344  0.10221  0.85000  Biso   1.000  N 
  N8       1.0000 0.96350  0.60251  0.85001  Biso   1.000  N 
  N9       1.0000 0.36622  0.83852  0.42834  Biso   1.000  N 
  N10      1.0000 0.14599  0.33399  0.13871  Biso   1.000  N 
  N11      1.0000 0.54918  0.95875  0.21475  Biso   1.000  N 
  N12      1.0000 0.64609  0.83431  0.13907  Biso   1.000  N 
  N13      1.0000 0.05040  0.59511  0.70884  Biso   1.000  N 
  N14      1.0000 0.46945  0.91327  0.57577  Biso   1.000  N 
  N15      1.0000 0.46218  0.96580  0.35598  Biso   1.000  N 
  N16      1.0000 0.96934  0.41352  0.57585  Biso   1.000  N 
  N17      1.0000 0.96211  0.46594  0.35585  Biso   1.000  N 
  N18      1.0000 0.04912  0.45857  0.21461  Biso   1.000  N 
  N19      1.0000 0.04146  0.40285  0.00025  Biso   1.000  N 
  N20      1.0000 0.54302  0.14768  0.48943  Biso   1.000  N 
  N21      1.0000 0.64624  0.22264  0.63617  Biso   1.000  N 
  N22      1.0000 0.04310  0.64754  0.48898  Biso   1.000  N 
  N23      1.0000 0.55034  0.09521  0.70923  Biso   1.000  N 
  N24      1.0000 0.14640  0.72197  0.63516  Biso   1.000  N 
  O1       1.0000 0.85449  0.32416  0.85625  Biso   1.000  O 
  O2       1.0000 0.85572  0.74334  0.35367  Biso   1.000  O 
  O3       1.0000 0.65720  0.81849  0.71209  Biso   1.000  O 
  O4       1.0000 0.15710  0.31829  0.71168  Biso   1.000  O 
  O5       1.0000 0.65770  0.23825  0.20922  Biso   1.000  O 
  O6       1.0000 0.15789  0.73730  0.20816  Biso   1.000  O 
  O7       1.0000 0.35468  0.82292  0.85523  Biso   1.000  O 
  O8       1.0000 0.35563  0.24305  0.35303  Biso   1.000  O 
