data_image0
_cell_length_a       31.5421
_cell_length_b       16.4917
_cell_length_c       5.25907
_cell_angle_alpha    89.6461
_cell_angle_beta     89.4392
_cell_angle_gamma    89.789

_symmetry_space_group_name_H-M    "P 1"
_symmetry_int_tables_number       1

loop_
  _symmetry_equiv_pos_as_xyz
  'x, y, z'

loop_
  _atom_site_label
  _atom_site_occupancy
  _atom_site_fract_x
  _atom_site_fract_y
  _atom_site_fract_z
  _atom_site_thermal_displace_type
  _atom_site_B_iso_or_equiv
  _atom_site_type_symbol
  C1       1.0000 0.29771  0.80910  0.57146  Biso   1.000  C 
  C2       1.0000 0.93541  0.39086  0.63554  Biso   1.000  C 
  C3       1.0000 0.42157  0.95829  0.27536  Biso   1.000  C 
  C4       1.0000 0.08985  0.45426  0.28882  Biso   1.000  C 
  C5       1.0000 0.58990  0.95450  0.28890  Biso   1.000  C 
  C6       1.0000 0.77888  0.25471  0.74382  Biso   1.000  C 
  C7       1.0000 0.23854  0.72433  0.70191  Biso   1.000  C 
  C8       1.0000 0.73818  0.22552  0.70370  Biso   1.000  C 
  C9       1.0000 0.21532  0.75057  0.49008  Biso   1.000  C 
  C10      1.0000 0.10653  0.39578  0.12231  Biso   1.000  C 
  C11      1.0000 0.07475  0.38241  0.94163  Biso   1.000  C 
  C12      1.0000 0.40470  0.90078  0.44616  Biso   1.000  C 
  C13      1.0000 0.57483  0.88249  0.94196  Biso   1.000  C 
  C14      1.0000 0.43561  0.89035  0.63451  Biso   1.000  C 
  C15      1.0000 0.73345  0.30735  0.32141  Biso   1.000  C 
  C16      1.0000 0.27450  0.83529  0.35946  Biso   1.000  C 
  C17      1.0000 0.23379  0.80609  0.31947  Biso   1.000  C 
  C18      1.0000 0.77416  0.33652  0.36150  Biso   1.000  C 
  C19      1.0000 0.79736  0.31029  0.57343  Biso   1.000  C 
  C20      1.0000 0.34086  0.84064  0.63096  Biso   1.000  C 
  C21      1.0000 0.84054  0.34177  0.63274  Biso   1.000  C 
  C22      1.0000 0.93771  0.67886  0.12440  Biso   1.000  C 
  C23      1.0000 0.43760  0.17865  0.12368  Biso   1.000  C 
  C24      1.0000 0.90597  0.66553  0.94342  Biso   1.000  C 
  C25      1.0000 0.40588  0.16524  0.94266  Biso   1.000  C 
  C26      1.0000 0.71496  0.25181  0.49187  Biso   1.000  C 
  C27      1.0000 0.90448  0.40141  0.44736  Biso   1.000  C 
  C28      1.0000 0.10821  0.65972  0.61763  Biso   1.000  C 
  C29      1.0000 0.60660  0.89595  0.12266  Biso   1.000  C 
  C30      1.0000 0.84172  0.72363  0.13047  Biso   1.000  C 
  C31      1.0000 0.34164  0.22343  0.12962  Biso   1.000  C 
  C32      1.0000 0.92142  0.45873  0.27616  Biso   1.000  C 
  C33      1.0000 0.59107  0.10303  0.78962  Biso   1.000  C 
  C34      1.0000 0.09125  0.60253  0.78921  Biso   1.000  C 
  C35      1.0000 0.23356  0.25334  0.82331  Biso   1.000  C 
  C36      1.0000 0.77487  0.72614  0.86294  Biso   1.000  C 
  C37      1.0000 0.27478  0.22592  0.86214  Biso   1.000  C 
  C38      1.0000 0.79800  0.75338  0.07248  Biso   1.000  C 
  C39      1.0000 0.60792  0.16046  0.61846  Biso   1.000  C 
  C40      1.0000 0.57695  0.17091  0.43047  Biso   1.000  C 
  C41      1.0000 0.07723  0.67037  0.42984  Biso   1.000  C 
  C42      1.0000 0.29792  0.25318  0.07160  Biso   1.000  C 
  C43      1.0000 0.77896  0.80819  0.24180  Biso   1.000  C 
  C44      1.0000 0.73366  0.75357  0.82402  Biso   1.000  C 
  C45      1.0000 0.73776  0.83565  0.20284  Biso   1.000  C 
  C46      1.0000 0.23769  0.33548  0.20200  Biso   1.000  C 
  C47      1.0000 0.27890  0.30801  0.24090  Biso   1.000  C 
  C48      1.0000 0.71462  0.80837  0.99335  Biso   1.000  C 
  C49      1.0000 0.21453  0.30816  0.99264  Biso   1.000  C 
  C50      1.0000 0.67086  0.83794  0.93551  Biso   1.000  C 
  C51      1.0000 0.17077  0.33775  0.93493  Biso   1.000  C 
  C52      1.0000 0.17210  0.71925  0.43125  Biso   1.000  C 
  C53      1.0000 0.67175  0.22046  0.43279  Biso   1.000  C 
  C54      1.0000 0.27925  0.75353  0.74192  Biso   1.000  C 
  C55      1.0000 0.42264  0.10681  0.77624  Biso   1.000  C 
  C56      1.0000 0.92271  0.60716  0.77674  Biso   1.000  C 
  Co1      1.0000 0.50675  0.00326  0.79396  Biso   1.000  Co
  Co2      1.0000 0.00675  0.50342  0.79423  Biso   1.000  Co
  Co3      1.0000 0.00587  0.55806  0.27166  Biso   1.000  Co
  Co4      1.0000 0.50586  0.05809  0.27152  Biso   1.000  Co
  H1       1.0000 0.29737  0.73369  0.90633  Biso   1.000  H 
  H2       1.0000 0.43740  0.21738  0.28917  Biso   1.000  H 
  H3       1.0000 0.72386  0.87906  0.33555  Biso   1.000  H 
  H4       1.0000 0.78762  0.38037  0.22757  Biso   1.000  H 
  H5       1.0000 0.28795  0.87913  0.22544  Biso   1.000  H 
  H6       1.0000 0.21566  0.82596  0.15510  Biso   1.000  H 
  H7       1.0000 0.22511  0.68044  0.83579  Biso   1.000  H 
  H8       1.0000 0.93752  0.71753  0.29004  Biso   1.000  H 
  H9       1.0000 0.71533  0.32725  0.15701  Biso   1.000  H 
  H10      1.0000 0.90821  0.48337  0.10223  Biso   1.000  H 
  H11      1.0000 0.57731  0.20838  0.26075  Biso   1.000  H 
  H12      1.0000 0.60432  0.07836  0.96336  Biso   1.000  H 
  H13      1.0000 0.15922  0.70473  0.81645  Biso   1.000  H 
  H14      1.0000 0.15827  0.35219  0.32034  Biso   1.000  H 
  H15      1.0000 0.65833  0.85240  0.32087  Biso   1.000  H 
  H16      1.0000 0.35418  0.20890  0.74433  Biso   1.000  H 
  H17      1.0000 0.85429  0.70921  0.74513  Biso   1.000  H 
  H18      1.0000 0.22381  0.37889  0.33469  Biso   1.000  H 
  H19      1.0000 0.07766  0.70776  0.25994  Biso   1.000  H 
  H20      1.0000 0.72473  0.18163  0.83750  Biso   1.000  H 
  H21      1.0000 0.79700  0.23480  0.90819  Biso   1.000  H 
  H22      1.0000 0.57500  0.84366  0.77670  Biso   1.000  H 
  H23      1.0000 0.29697  0.32875  0.40338  Biso   1.000  H 
  H24      1.0000 0.40874  0.07995  0.60878  Biso   1.000  H 
  H25      1.0000 0.78876  0.68274  0.73019  Biso   1.000  H 
  H26      1.0000 0.28865  0.18251  0.72939  Biso   1.000  H 
  H27      1.0000 0.65880  0.20579  0.81785  Biso   1.000  H 
  H28      1.0000 0.07490  0.34368  0.77613  Biso   1.000  H 
  H29      1.0000 0.90881  0.58041  0.60912  Biso   1.000  H 
  H30      1.0000 0.21546  0.23256  0.66100  Biso   1.000  H 
  H31      1.0000 0.10449  0.57783  0.96296  Biso   1.000  H 
  H32      1.0000 0.60383  0.98140  0.45618  Biso   1.000  H 
  H33      1.0000 0.10381  0.48111  0.45611  Biso   1.000  H 
  H34      1.0000 0.43522  0.85282  0.80411  Biso   1.000  H 
  H35      1.0000 0.71558  0.73282  0.66157  Biso   1.000  H 
  H36      1.0000 0.40835  0.98299  0.10157  Biso   1.000  H 
  H37      1.0000 0.35391  0.85535  0.24608  Biso   1.000  H 
  H38      1.0000 0.85360  0.35617  0.24771  Biso   1.000  H 
  H39      1.0000 0.93500  0.35341  0.80531  Biso   1.000  H 
  H40      1.0000 0.79703  0.82892  0.40431  Biso   1.000  H 
  N1       1.0000 0.55045  0.97398  0.21207  Biso   1.000  N 
  N2       1.0000 0.86468  0.36476  0.42815  Biso   1.000  N 
  N3       1.0000 0.97138  0.63169  0.06482  Biso   1.000  N 
  N4       1.0000 0.47128  0.13147  0.06433  Biso   1.000  N 
  N5       1.0000 0.14676  0.36019  0.14022  Biso   1.000  N 
  N6       1.0000 0.86576  0.70117  0.92531  Biso   1.000  N 
  N7       1.0000 0.64683  0.86037  0.14074  Biso   1.000  N 
  N8       1.0000 0.46209  0.08735  0.85321  Biso   1.000  N 
  N9       1.0000 0.54119  0.92977  0.00124  Biso   1.000  N 
  N10      1.0000 0.96217  0.58765  0.85353  Biso   1.000  N 
  N11      1.0000 0.36496  0.86392  0.42657  Biso   1.000  N 
  N12      1.0000 0.36567  0.20088  0.92449  Biso   1.000  N 
  N13      1.0000 0.46009  0.98053  0.35953  Biso   1.000  N 
  N14      1.0000 0.04395  0.62237  0.48894  Biso   1.000  N 
  N15      1.0000 0.04111  0.42966  0.00121  Biso   1.000  N 
  N16      1.0000 0.96864  0.43906  0.57698  Biso   1.000  N 
  N17      1.0000 0.95999  0.48076  0.35995  Biso   1.000  N 
  N18      1.0000 0.05039  0.47379  0.21222  Biso   1.000  N 
  N19      1.0000 0.46877  0.93877  0.57640  Biso   1.000  N 
  N20      1.0000 0.54379  0.12257  0.48907  Biso   1.000  N 
  N21      1.0000 0.05261  0.58068  0.70597  Biso   1.000  N 
  N22      1.0000 0.14806  0.69617  0.63618  Biso   1.000  N 
  N23      1.0000 0.64769  0.19721  0.63747  Biso   1.000  N 
  N24      1.0000 0.55251  0.08085  0.70596  Biso   1.000  N 
  O1       1.0000 0.65773  0.84199  0.71252  Biso   1.000  O 
  O2       1.0000 0.15762  0.34179  0.71197  Biso   1.000  O 
  O3       1.0000 0.65907  0.21585  0.20908  Biso   1.000  O 
  O4       1.0000 0.15940  0.71455  0.20761  Biso   1.000  O 
  O5       1.0000 0.35345  0.84535  0.85483  Biso   1.000  O 
  O6       1.0000 0.85313  0.34667  0.85658  Biso   1.000  O 
  O7       1.0000 0.85479  0.71943  0.35355  Biso   1.000  O 
  O8       1.0000 0.35472  0.21931  0.35268  Biso   1.000  O 
