data_image0
_cell_length_a       33.578
_cell_length_b       5.94782
_cell_length_c       6.83629
_cell_angle_alpha    79.7655
_cell_angle_beta     88.0589
_cell_angle_gamma    98.0146

_symmetry_space_group_name_H-M    "P 1"
_symmetry_int_tables_number       1

loop_
  _symmetry_equiv_pos_as_xyz
  'x, y, z'

loop_
  _atom_site_label
  _atom_site_occupancy
  _atom_site_fract_x
  _atom_site_fract_y
  _atom_site_fract_z
  _atom_site_thermal_displace_type
  _atom_site_B_iso_or_equiv
  _atom_site_type_symbol
  C1       1.0000 0.29572  0.78089  0.59019  Biso   1.000  C 
  C2       1.0000 0.34056  0.32384  0.12819  Biso   1.000  C 
  C3       1.0000 0.08351  0.36849  0.87391  Biso   1.000  C 
  C4       1.0000 0.57937  0.36122  0.63032  Biso   1.000  C 
  C5       1.0000 0.07932  0.86072  0.63107  Biso   1.000  C 
  C6       1.0000 0.24490  0.25897  0.84268  Biso   1.000  C 
  C7       1.0000 0.78543  0.77804  0.88258  Biso   1.000  C 
  C8       1.0000 0.28541  0.27784  0.88289  Biso   1.000  C 
  C9       1.0000 0.79753  0.80161  0.07345  Biso   1.000  C 
  C10      1.0000 0.60852  0.34776  0.48294  Biso   1.000  C 
  C11      1.0000 0.76778  0.80420  0.22131  Biso   1.000  C 
  C12      1.0000 0.74491  0.75918  0.84231  Biso   1.000  C 
  C13      1.0000 0.93317  0.19795  0.43544  Biso   1.000  C 
  C14      1.0000 0.60483  0.80901  0.04333  Biso   1.000  C 
  C15      1.0000 0.26779  0.30384  0.22169  Biso   1.000  C 
  C16      1.0000 0.72727  0.78534  0.18104  Biso   1.000  C 
  C17      1.0000 0.22728  0.28498  0.18148  Biso   1.000  C 
  C18      1.0000 0.71516  0.76156  0.99024  Biso   1.000  C 
  C19      1.0000 0.21515  0.26127  0.99068  Biso   1.000  C 
  C20      1.0000 0.67209  0.73794  0.93638  Biso   1.000  C 
  C21      1.0000 0.17209  0.23765  0.93683  Biso   1.000  C 
  C22      1.0000 0.17549  0.77523  0.40340  Biso   1.000  C 
  C23      1.0000 0.67553  0.27562  0.40284  Biso   1.000  C 
  C24      1.0000 0.26465  0.79225  0.72819  Biso   1.000  C 
  C25      1.0000 0.43558  0.26380  0.86108  Biso   1.000  C 
  C26      1.0000 0.93561  0.76376  0.86148  Biso   1.000  C 
  C27      1.0000 0.84055  0.82409  0.12804  Biso   1.000  C 
  C28      1.0000 0.40400  0.71281  0.58171  Biso   1.000  C 
  C29      1.0000 0.29753  0.30133  0.07376  Biso   1.000  C 
  C30      1.0000 0.90395  0.21266  0.58204  Biso   1.000  C 
  C31      1.0000 0.92538  0.30629  0.72845  Biso   1.000  C 
  C32      1.0000 0.08699  0.75354  0.33749  Biso   1.000  C 
  C33      1.0000 0.07715  0.29703  0.20485  Biso   1.000  C 
  C34      1.0000 0.57714  0.79717  0.20430  Biso   1.000  C 
  C35      1.0000 0.76461  0.29236  0.72799  Biso   1.000  C 
  C36      1.0000 0.22538  0.79190  0.67143  Biso   1.000  C 
  C37      1.0000 0.72535  0.29215  0.67106  Biso   1.000  C 
  C38      1.0000 0.21688  0.78200  0.47358  Biso   1.000  C 
  C39      1.0000 0.10483  0.30876  0.04384  Biso   1.000  C 
  C40      1.0000 0.58355  0.86898  0.87334  Biso   1.000  C 
  C41      1.0000 0.42544  0.80654  0.72804  Biso   1.000  C 
  C42      1.0000 0.43320  0.69818  0.43501  Biso   1.000  C 
  C43      1.0000 0.10848  0.84728  0.48368  Biso   1.000  C 
  C44      1.0000 0.58703  0.25391  0.33681  Biso   1.000  C 
  C45      1.0000 0.74799  0.27119  0.33518  Biso   1.000  C 
  C46      1.0000 0.28723  0.77109  0.39232  Biso   1.000  C 
  C47      1.0000 0.24795  0.77076  0.33555  Biso   1.000  C 
  C48      1.0000 0.78725  0.27145  0.39213  Biso   1.000  C 
  C49      1.0000 0.79570  0.28110  0.59006  Biso   1.000  C 
  C50      1.0000 0.33708  0.78707  0.66060  Biso   1.000  C 
  C51      1.0000 0.83705  0.28724  0.66064  Biso   1.000  C 
  C52      1.0000 0.92890  0.69036  0.19239  Biso   1.000  C 
  C53      1.0000 0.42894  0.19055  0.19202  Biso   1.000  C 
  C54      1.0000 0.90781  0.75190  0.02199  Biso   1.000  C 
  C55      1.0000 0.40781  0.25188  0.02174  Biso   1.000  C 
  C56      1.0000 0.71690  0.28239  0.47313  Biso   1.000  C 
  Co1      1.0000 0.50636  0.00691  0.28714  Biso   1.000  Co
  Co2      1.0000 0.00631  0.50651  0.28775  Biso   1.000  Co
  Co3      1.0000 0.50615  0.05213  0.77882  Biso   1.000  Co
  Co4      1.0000 0.00611  0.55145  0.77951  Biso   1.000  Co
  H1       1.0000 0.80750  0.77816  0.76212  Biso   1.000  H 
  H2       1.0000 0.08313  0.92005  0.77142  Biso   1.000  H 
  H3       1.0000 0.66037  0.47752  0.60517  Biso   1.000  H 
  H4       1.0000 0.23569  0.24626  0.69354  Biso   1.000  H 
  H5       1.0000 0.77193  0.29679  0.88115  Biso   1.000  H 
  H6       1.0000 0.27699  0.31646  0.37084  Biso   1.000  H 
  H7       1.0000 0.09337  0.39543  0.71788  Biso   1.000  H 
  H8       1.0000 0.93162  0.80433  0.70314  Biso   1.000  H 
  H9       1.0000 0.43155  0.30422  0.70276  Biso   1.000  H 
  H10      1.0000 0.91433  0.33900  0.86923  Biso   1.000  H 
  H11      1.0000 0.73571  0.74646  0.69316  Biso   1.000  H 
  H12      1.0000 0.42945  0.63850  0.29479  Biso   1.000  H 
  H13      1.0000 0.35215  0.58408  0.45886  Biso   1.000  H 
  H14      1.0000 0.85211  0.08423  0.45897  Biso   1.000  H 
  H15      1.0000 0.77698  0.81688  0.37046  Biso   1.000  H 
  H16      1.0000 0.59341  0.89606  0.71732  Biso   1.000  H 
  H17      1.0000 0.58128  0.75749  0.36252  Biso   1.000  H 
  H18      1.0000 0.08132  0.25758  0.36305  Biso   1.000  H 
  H19      1.0000 0.41440  0.83925  0.86884  Biso   1.000  H 
  H20      1.0000 0.30748  0.27798  0.76240  Biso   1.000  H 
  H21      1.0000 0.70519  0.78515  0.30148  Biso   1.000  H 
  H22      1.0000 0.58318  0.42058  0.77064  Biso   1.000  H 
  H23      1.0000 0.31126  0.76783  0.28196  Biso   1.000  H 
  H24      1.0000 0.81130  0.26825  0.28188  Biso   1.000  H 
  H25      1.0000 0.74068  0.26670  0.18201  Biso   1.000  H 
  H26      1.0000 0.24062  0.76620  0.18244  Biso   1.000  H 
  H27      1.0000 0.70131  0.29536  0.78135  Biso   1.000  H 
  H28      1.0000 0.20136  0.79515  0.78187  Biso   1.000  H 
  H29      1.0000 0.91891  0.66292  0.34827  Biso   1.000  H 
  H30      1.0000 0.41898  0.16309  0.34794  Biso   1.000  H 
  H31      1.0000 0.27198  0.79673  0.88133  Biso   1.000  H 
  H32      1.0000 0.16033  0.97677  0.60602  Biso   1.000  H 
  H33      1.0000 0.15787  0.39187  0.16910  Biso   1.000  H 
  H34      1.0000 0.65786  0.89201  0.16872  Biso   1.000  H 
  H35      1.0000 0.35484  0.17112  0.89507  Biso   1.000  H 
  H36      1.0000 0.85487  0.67141  0.89497  Biso   1.000  H 
  H37      1.0000 0.20521  0.28477  0.30198  Biso   1.000  H 
  H38      1.0000 0.09797  0.72148  0.19634  Biso   1.000  H 
  H39      1.0000 0.92943  0.13843  0.29514  Biso   1.000  H 
  H40      1.0000 0.59802  0.22188  0.19565  Biso   1.000  H 
  N1       1.0000 0.04276  0.76840  0.58023  Biso   1.000  N 
  N2       1.0000 0.96477  0.35652  0.66655  Biso   1.000  N 
  N3       1.0000 0.96973  0.28941  0.48693  Biso   1.000  N 
  N4       1.0000 0.04214  0.35487  0.13609  Biso   1.000  N 
  N5       1.0000 0.46482  0.85692  0.66598  Biso   1.000  N 
  N6       1.0000 0.54770  0.20238  0.39959  Biso   1.000  N 
  N7       1.0000 0.54281  0.26889  0.57952  Biso   1.000  N 
  N8       1.0000 0.15010  0.88596  0.49786  Biso   1.000  N 
  N9       1.0000 0.04592  0.39805  0.93271  Biso   1.000  N 
  N10      1.0000 0.04765  0.70196  0.40028  Biso   1.000  N 
  N11      1.0000 0.46977  0.78979  0.48636  Biso   1.000  N 
  N12      1.0000 0.65014  0.38661  0.49706  Biso   1.000  N 
  N13      1.0000 0.97047  0.70430  0.93092  Biso   1.000  N 
  N14      1.0000 0.36671  0.26235  0.99924  Biso   1.000  N 
  N15      1.0000 0.47047  0.20458  0.93035  Biso   1.000  N 
  N16      1.0000 0.86235  0.17523  0.56700  Biso   1.000  N 
  N17      1.0000 0.96649  0.65995  0.13426  Biso   1.000  N 
  N18      1.0000 0.46653  0.16032  0.13370  Biso   1.000  N 
  N19      1.0000 0.64598  0.79974  0.06526  Biso   1.000  N 
  N20      1.0000 0.86672  0.76255  0.99922  Biso   1.000  N 
  N21      1.0000 0.14597  0.29953  0.06568  Biso   1.000  N 
  N22      1.0000 0.54215  0.85519  0.13545  Biso   1.000  N 
  N23      1.0000 0.54595  0.89860  0.93208  Biso   1.000  N 
  N24      1.0000 0.36239  0.67521  0.56682  Biso   1.000  N 
  O1       1.0000 0.66508  0.17093  0.26517  Biso   1.000  O 
  O2       1.0000 0.16505  0.67076  0.26559  Biso   1.000  O 
  O3       1.0000 0.34758  0.89184  0.79815  Biso   1.000  O 
  O4       1.0000 0.84753  0.39205  0.79818  Biso   1.000  O 
  O5       1.0000 0.85137  0.89310  0.28340  Biso   1.000  O 
  O6       1.0000 0.66120  0.66758  0.78172  Biso   1.000  O 
  O7       1.0000 0.16120  0.16728  0.78218  Biso   1.000  O 
  O8       1.0000 0.35141  0.39288  0.28348  Biso   1.000  O 
