data_image0
_cell_length_a       28.4699
_cell_length_b       21.8526
_cell_length_c       5.42673
_cell_angle_alpha    89.717
_cell_angle_beta     87.1303
_cell_angle_gamma    90.0314

_symmetry_space_group_name_H-M    "P 1"
_symmetry_int_tables_number       1

loop_
  _symmetry_equiv_pos_as_xyz
  'x, y, z'

loop_
  _atom_site_label
  _atom_site_occupancy
  _atom_site_fract_x
  _atom_site_fract_y
  _atom_site_fract_z
  _atom_site_thermal_displace_type
  _atom_site_B_iso_or_equiv
  _atom_site_type_symbol
  C1       1.0000 0.29693  0.81580  0.57107  Biso   1.000  C 
  C2       1.0000 0.33743  0.20633  0.13207  Biso   1.000  C 
  C3       1.0000 0.72994  0.77039  0.82708  Biso   1.000  C 
  C4       1.0000 0.59654  0.09489  0.76993  Biso   1.000  C 
  C5       1.0000 0.09690  0.59404  0.77308  Biso   1.000  C 
  C6       1.0000 0.22995  0.27101  0.82650  Biso   1.000  C 
  C7       1.0000 0.76907  0.73422  0.86736  Biso   1.000  C 
  C8       1.0000 0.26905  0.23471  0.86591  Biso   1.000  C 
  C9       1.0000 0.79552  0.74397  0.07523  Biso   1.000  C 
  C10      1.0000 0.61132  0.14239  0.60834  Biso   1.000  C 
  C11      1.0000 0.57783  0.14444  0.42651  Biso   1.000  C 
  C12      1.0000 0.07832  0.64393  0.43026  Biso   1.000  C 
  C13      1.0000 0.29560  0.24425  0.07360  Biso   1.000  C 
  C14      1.0000 0.78178  0.79044  0.24106  Biso   1.000  C 
  C15      1.0000 0.28201  0.29068  0.23992  Biso   1.000  C 
  C16      1.0000 0.74265  0.82660  0.20084  Biso   1.000  C 
  C17      1.0000 0.24292  0.32698  0.20051  Biso   1.000  C 
  C18      1.0000 0.71622  0.81688  0.99283  Biso   1.000  C 
  C19      1.0000 0.21636  0.31742  0.99289  Biso   1.000  C 
  C20      1.0000 0.67439  0.85469  0.93349  Biso   1.000  C 
  C21      1.0000 0.17449  0.35529  0.93461  Biso   1.000  C 
  C22      1.0000 0.17575  0.70482  0.43409  Biso   1.000  C 
  C23      1.0000 0.67502  0.20612  0.43122  Biso   1.000  C 
  C24      1.0000 0.28303  0.76956  0.73956  Biso   1.000  C 
  C25      1.0000 0.41608  0.09596  0.79583  Biso   1.000  C 
  C26      1.0000 0.91627  0.59599  0.79862  Biso   1.000  C 
  C27      1.0000 0.83745  0.70629  0.13411  Biso   1.000  C 
  C28      1.0000 0.91584  0.46753  0.29409  Biso   1.000  C 
  C29      1.0000 0.11189  0.64147  0.61164  Biso   1.000  C 
  C30      1.0000 0.90111  0.41974  0.45444  Biso   1.000  C 
  C31      1.0000 0.93448  0.41769  0.63697  Biso   1.000  C 
  C32      1.0000 0.41603  0.96663  0.29174  Biso   1.000  C 
  C33      1.0000 0.09604  0.46600  0.27050  Biso   1.000  C 
  C34      1.0000 0.59601  0.96577  0.26761  Biso   1.000  C 
  C35      1.0000 0.78193  0.27115  0.73856  Biso   1.000  C 
  C36      1.0000 0.24387  0.73332  0.70113  Biso   1.000  C 
  C37      1.0000 0.74284  0.23488  0.69952  Biso   1.000  C 
  C38      1.0000 0.21760  0.74269  0.49197  Biso   1.000  C 
  C39      1.0000 0.11067  0.41817  0.11224  Biso   1.000  C 
  C40      1.0000 0.61060  0.91789  0.10952  Biso   1.000  C 
  C41      1.0000 0.07612  0.41410  0.93656  Biso   1.000  C 
  C42      1.0000 0.40161  0.91886  0.45288  Biso   1.000  C 
  C43      1.0000 0.57619  0.91409  0.93296  Biso   1.000  C 
  C44      1.0000 0.43509  0.91719  0.63481  Biso   1.000  C 
  C45      1.0000 0.73075  0.29035  0.32124  Biso   1.000  C 
  C46      1.0000 0.27070  0.82509  0.36174  Biso   1.000  C 
  C47      1.0000 0.23158  0.78882  0.32316  Biso   1.000  C 
  C48      1.0000 0.76985  0.32663  0.36032  Biso   1.000  C 
  C49      1.0000 0.79596  0.31733  0.57007  Biso   1.000  C 
  C50      1.0000 0.33849  0.85414  0.62971  Biso   1.000  C 
  C51      1.0000 0.83756  0.35548  0.62937  Biso   1.000  C 
  C52      1.0000 0.93604  0.64796  0.13257  Biso   1.000  C 
  C53      1.0000 0.43598  0.14780  0.12991  Biso   1.000  C 
  C54      1.0000 0.90152  0.64376  0.95684  Biso   1.000  C 
  C55      1.0000 0.40142  0.14371  0.95434  Biso   1.000  C 
  C56      1.0000 0.71671  0.24419  0.48982  Biso   1.000  C 
  Co1      1.0000 0.00602  0.55055  0.27738  Biso   1.000  Co
  Co2      1.0000 0.50600  0.05031  0.27405  Biso   1.000  Co
  Co3      1.0000 0.00632  0.51166  0.79152  Biso   1.000  Co
  Co4      1.0000 0.50634  0.01185  0.78814  Biso   1.000  Co
  H1       1.0000 0.40016  0.07818  0.63320  Biso   1.000  H 
  H2       1.0000 0.77852  0.69812  0.73602  Biso   1.000  H 
  H3       1.0000 0.27841  0.19868  0.73407  Biso   1.000  H 
  H4       1.0000 0.11202  0.57736  0.94034  Biso   1.000  H 
  H5       1.0000 0.66110  0.18851  0.80322  Biso   1.000  H 
  H6       1.0000 0.80229  0.26422  0.90099  Biso   1.000  H 
  H7       1.0000 0.07422  0.38446  0.77816  Biso   1.000  H 
  H8       1.0000 0.90041  0.57812  0.63603  Biso   1.000  H 
  H9       1.0000 0.20922  0.26389  0.66575  Biso   1.000  H 
  H10      1.0000 0.93606  0.38855  0.79821  Biso   1.000  H 
  H11      1.0000 0.61186  0.98344  0.43060  Biso   1.000  H 
  H12      1.0000 0.11197  0.48382  0.43304  Biso   1.000  H 
  H13      1.0000 0.43687  0.88822  0.79641  Biso   1.000  H 
  H14      1.0000 0.70929  0.76313  0.66613  Biso   1.000  H 
  H15      1.0000 0.40076  0.98300  0.12441  Biso   1.000  H 
  H16      1.0000 0.35213  0.87221  0.25791  Biso   1.000  H 
  H17      1.0000 0.85160  0.37355  0.25779  Biso   1.000  H 
  H18      1.0000 0.80244  0.79772  0.40197  Biso   1.000  H 
  H19      1.0000 0.57430  0.88447  0.77448  Biso   1.000  H 
  H20      1.0000 0.30276  0.29782  0.40059  Biso   1.000  H 
  H21      1.0000 0.73312  0.19910  0.83345  Biso   1.000  H 
  H22      1.0000 0.23360  0.36307  0.33224  Biso   1.000  H 
  H23      1.0000 0.73318  0.86268  0.33229  Biso   1.000  H 
  H24      1.0000 0.43791  0.17746  0.28825  Biso   1.000  H 
  H25      1.0000 0.77957  0.36239  0.22633  Biso   1.000  H 
  H26      1.0000 0.28031  0.86086  0.22763  Biso   1.000  H 
  H27      1.0000 0.21112  0.79578  0.16107  Biso   1.000  H 
  H28      1.0000 0.23423  0.69755  0.83521  Biso   1.000  H 
  H29      1.0000 0.93788  0.67769  0.29075  Biso   1.000  H 
  H30      1.0000 0.30352  0.76254  0.90148  Biso   1.000  H 
  H31      1.0000 0.71038  0.29728  0.15880  Biso   1.000  H 
  H32      1.0000 0.07681  0.67298  0.26871  Biso   1.000  H 
  H33      1.0000 0.57624  0.17336  0.26466  Biso   1.000  H 
  H34      1.0000 0.61169  0.07838  0.93739  Biso   1.000  H 
  H35      1.0000 0.16196  0.68716  0.80622  Biso   1.000  H 
  H36      1.0000 0.16127  0.37309  0.30640  Biso   1.000  H 
  H37      1.0000 0.66096  0.87265  0.30490  Biso   1.000  H 
  H38      1.0000 0.35080  0.18879  0.76031  Biso   1.000  H 
  H39      1.0000 0.90074  0.48415  0.12673  Biso   1.000  H 
  H40      1.0000 0.85084  0.68862  0.76246  Biso   1.000  H 
  N1       1.0000 0.46730  0.96117  0.58215  Biso   1.000  N 
  N2       1.0000 0.96692  0.46145  0.58525  Biso   1.000  N 
  N3       1.0000 0.95552  0.49211  0.37840  Biso   1.000  N 
  N4       1.0000 0.05502  0.48835  0.19330  Biso   1.000  N 
  N5       1.0000 0.55672  0.07043  0.68687  Biso   1.000  N 
  N6       1.0000 0.54527  0.10091  0.47968  Biso   1.000  N 
  N7       1.0000 0.45565  0.99159  0.37519  Biso   1.000  N 
  N8       1.0000 0.05688  0.57003  0.69045  Biso   1.000  N 
  N9       1.0000 0.15175  0.67837  0.63192  Biso   1.000  N 
  N10      1.0000 0.65097  0.17966  0.62886  Biso   1.000  N 
  N11      1.0000 0.04552  0.60072  0.48357  Biso   1.000  N 
  N12      1.0000 0.04288  0.45650  0.99113  Biso   1.000  N 
  N13      1.0000 0.36122  0.18000  0.93451  Biso   1.000  N 
  N14      1.0000 0.54307  0.95668  0.98696  Biso   1.000  N 
  N15      1.0000 0.55516  0.98841  0.18949  Biso   1.000  N 
  N16      1.0000 0.86160  0.38229  0.43247  Biso   1.000  N 
  N17      1.0000 0.96940  0.60572  0.07801  Biso   1.000  N 
  N18      1.0000 0.46927  0.10547  0.07506  Biso   1.000  N 
  N19      1.0000 0.36225  0.88110  0.43226  Biso   1.000  N 
  N20      1.0000 0.86128  0.67994  0.93671  Biso   1.000  N 
  N21      1.0000 0.65062  0.88133  0.13043  Biso   1.000  N 
  N22      1.0000 0.15083  0.38183  0.13215  Biso   1.000  N 
  N23      1.0000 0.45712  0.07365  0.87282  Biso   1.000  N 
  N24      1.0000 0.95734  0.57381  0.87585  Biso   1.000  N 
  O1       1.0000 0.16212  0.36140  0.71857  Biso   1.000  O 
  O2       1.0000 0.66318  0.19966  0.21460  Biso   1.000  O 
  O3       1.0000 0.16374  0.69851  0.21770  Biso   1.000  O 
  O4       1.0000 0.35042  0.86045  0.84627  Biso   1.000  O 
  O5       1.0000 0.84935  0.36171  0.84616  Biso   1.000  O 
  O6       1.0000 0.84972  0.70020  0.35030  Biso   1.000  O 
  O7       1.0000 0.66217  0.86073  0.71715  Biso   1.000  O 
  O8       1.0000 0.34965  0.20003  0.34828  Biso   1.000  O 
