data_image0
_cell_length_a       27.0681
_cell_length_b       23.5158
_cell_length_c       5.82321
_cell_angle_alpha    89.7593
_cell_angle_beta     85.6292
_cell_angle_gamma    89.9785

_symmetry_space_group_name_H-M    "P 1"
_symmetry_int_tables_number       1

loop_
  _symmetry_equiv_pos_as_xyz
  'x, y, z'

loop_
  _atom_site_label
  _atom_site_occupancy
  _atom_site_fract_x
  _atom_site_fract_y
  _atom_site_fract_z
  _atom_site_thermal_displace_type
  _atom_site_B_iso_or_equiv
  _atom_site_type_symbol
  C1       1.0000 0.29632  0.81682  0.56953  Biso   1.000  C 
  C2       1.0000 0.33751  0.20638  0.13014  Biso   1.000  C 
  C3       1.0000 0.73252  0.77642  0.83149  Biso   1.000  C 
  C4       1.0000 0.59775  0.09398  0.74148  Biso   1.000  C 
  C5       1.0000 0.09792  0.59409  0.74771  Biso   1.000  C 
  C6       1.0000 0.23251  0.27705  0.82872  Biso   1.000  C 
  C7       1.0000 0.77176  0.74036  0.87118  Biso   1.000  C 
  C8       1.0000 0.27169  0.24075  0.86685  Biso   1.000  C 
  C9       1.0000 0.79570  0.74451  0.07624  Biso   1.000  C 
  C10      1.0000 0.61264  0.13819  0.58839  Biso   1.000  C 
  C11      1.0000 0.57919  0.13680  0.41515  Biso   1.000  C 
  C12      1.0000 0.07927  0.63661  0.42088  Biso   1.000  C 
  C13      1.0000 0.29584  0.24450  0.07146  Biso   1.000  C 
  C14      1.0000 0.77922  0.78546  0.23909  Biso   1.000  C 
  C15      1.0000 0.27967  0.28535  0.23530  Biso   1.000  C 
  C16      1.0000 0.73996  0.82151  0.19945  Biso   1.000  C 
  C17      1.0000 0.24047  0.32165  0.19723  Biso   1.000  C 
  C18      1.0000 0.71606  0.81740  0.99424  Biso   1.000  C 
  C19      1.0000 0.21631  0.31787  0.99266  Biso   1.000  C 
  C20      1.0000 0.67441  0.85531  0.93382  Biso   1.000  C 
  C21      1.0000 0.17455  0.35590  0.93431  Biso   1.000  C 
  C22      1.0000 0.17718  0.70298  0.43062  Biso   1.000  C 
  C23      1.0000 0.67679  0.20372  0.42871  Biso   1.000  C 
  C24      1.0000 0.28091  0.77519  0.73286  Biso   1.000  C 
  C25      1.0000 0.41565  0.09667  0.81686  Biso   1.000  C 
  C26      1.0000 0.91578  0.59702  0.82410  Biso   1.000  C 
  C27      1.0000 0.83749  0.70673  0.13606  Biso   1.000  C 
  C28      1.0000 0.91448  0.46762  0.32362  Biso   1.000  C 
  C29      1.0000 0.11287  0.63806  0.59346  Biso   1.000  C 
  C30      1.0000 0.89981  0.42318  0.47608  Biso   1.000  C 
  C31      1.0000 0.93302  0.42496  0.65031  Biso   1.000  C 
  C32      1.0000 0.41499  0.96663  0.31620  Biso   1.000  C 
  C33      1.0000 0.09624  0.46517  0.24900  Biso   1.000  C 
  C34      1.0000 0.59613  0.96529  0.24395  Biso   1.000  C 
  C35      1.0000 0.77995  0.27590  0.73495  Biso   1.000  C 
  C36      1.0000 0.24252  0.73796  0.69385  Biso   1.000  C 
  C37      1.0000 0.74167  0.23865  0.69445  Biso   1.000  C 
  C38      1.0000 0.21841  0.74158  0.48898  Biso   1.000  C 
  C39      1.0000 0.11038  0.42083  0.09659  Biso   1.000  C 
  C40      1.0000 0.61033  0.92076  0.09263  Biso   1.000  C 
  C41      1.0000 0.07656  0.42275  0.92501  Biso   1.000  C 
  C42      1.0000 0.40062  0.92216  0.46909  Biso   1.000  C 
  C43      1.0000 0.57679  0.92267  0.91981  Biso   1.000  C 
  C44      1.0000 0.43387  0.92428  0.64299  Biso   1.000  C 
  C45      1.0000 0.73323  0.28432  0.32686  Biso   1.000  C 
  C46      1.0000 0.27232  0.82034  0.36434  Biso   1.000  C 
  C47      1.0000 0.23392  0.78311  0.32538  Biso   1.000  C 
  C48      1.0000 0.77150  0.32159  0.36742  Biso   1.000  C 
  C49      1.0000 0.79542  0.31777  0.57278  Biso   1.000  C 
  C50      1.0000 0.33714  0.85586  0.62923  Biso   1.000  C 
  C51      1.0000 0.83622  0.35669  0.63389  Biso   1.000  C 
  C52      1.0000 0.93534  0.63951  0.14810  Biso   1.000  C 
  C53      1.0000 0.43525  0.13922  0.14073  Biso   1.000  C 
  C54      1.0000 0.90164  0.64145  0.97603  Biso   1.000  C 
  C55      1.0000 0.40150  0.14110  0.96885  Biso   1.000  C 
  C56      1.0000 0.71775  0.24248  0.48912  Biso   1.000  C 
  Co1      1.0000 0.00614  0.54707  0.28583  Biso   1.000  Co
  Co2      1.0000 0.50609  0.04707  0.27885  Biso   1.000  Co
  Co3      1.0000 0.00577  0.51512  0.78769  Biso   1.000  Co
  Co4      1.0000 0.50591  0.01493  0.78063  Biso   1.000  Co
  H1       1.0000 0.40014  0.08338  0.65908  Biso   1.000  H 
  H2       1.0000 0.78290  0.70880  0.74038  Biso   1.000  H 
  H3       1.0000 0.28260  0.20930  0.73525  Biso   1.000  H 
  H4       1.0000 0.11306  0.58071  0.90670  Biso   1.000  H 
  H5       1.0000 0.66185  0.18346  0.77224  Biso   1.000  H 
  H6       1.0000 0.79876  0.27306  0.89344  Biso   1.000  H 
  H7       1.0000 0.07459  0.39689  0.77268  Biso   1.000  H 
  H8       1.0000 0.90029  0.58374  0.66629  Biso   1.000  H 
  H9       1.0000 0.21351  0.27423  0.67088  Biso   1.000  H 
  H10      1.0000 0.93446  0.39893  0.80337  Biso   1.000  H 
  H11      1.0000 0.61147  0.97861  0.40208  Biso   1.000  H 
  H12      1.0000 0.11181  0.47839  0.40674  Biso   1.000  H 
  H13      1.0000 0.43553  0.89833  0.79613  Biso   1.000  H 
  H14      1.0000 0.71368  0.77330  0.67327  Biso   1.000  H 
  H15      1.0000 0.39989  0.97979  0.15685  Biso   1.000  H 
  H16      1.0000 0.35190  0.87605  0.28544  Biso   1.000  H 
  H17      1.0000 0.85102  0.37763  0.29087  Biso   1.000  H 
  H18      1.0000 0.79803  0.78858  0.39738  Biso   1.000  H 
  H19      1.0000 0.57498  0.89665  0.76783  Biso   1.000  H 
  H20      1.0000 0.29867  0.28818  0.39314  Biso   1.000  H 
  H21      1.0000 0.73123  0.20649  0.82489  Biso   1.000  H 
  H22      1.0000 0.22954  0.35308  0.32888  Biso   1.000  H 
  H23      1.0000 0.72877  0.85301  0.33041  Biso   1.000  H 
  H24      1.0000 0.43721  0.16518  0.29281  Biso   1.000  H 
  H25      1.0000 0.78192  0.35375  0.23695  Biso   1.000  H 
  H26      1.0000 0.28271  0.85231  0.23302  Biso   1.000  H 
  H27      1.0000 0.21497  0.78579  0.16726  Biso   1.000  H 
  H28      1.0000 0.23215  0.70595  0.82499  Biso   1.000  H 
  H29      1.0000 0.93726  0.66548  0.30019  Biso   1.000  H 
  H30      1.0000 0.29985  0.77255  0.89101  Biso   1.000  H 
  H31      1.0000 0.71439  0.28718  0.16845  Biso   1.000  H 
  H32      1.0000 0.07785  0.66244  0.26729  Biso   1.000  H 
  H33      1.0000 0.57779  0.16281  0.26200  Biso   1.000  H 
  H34      1.0000 0.61282  0.08043  0.90037  Biso   1.000  H 
  H35      1.0000 0.16249  0.68335  0.77498  Biso   1.000  H 
  H36      1.0000 0.15989  0.37511  0.27852  Biso   1.000  H 
  H37      1.0000 0.65951  0.87521  0.27710  Biso   1.000  H 
  H38      1.0000 0.35211  0.18684  0.78621  Biso   1.000  H 
  H39      1.0000 0.89948  0.48105  0.16438  Biso   1.000  H 
  H40      1.0000 0.85227  0.68699  0.79263  Biso   1.000  H 
  N1       1.0000 0.46598  0.96726  0.59371  Biso   1.000  N 
  N2       1.0000 0.96544  0.46766  0.60134  Biso   1.000  N 
  N3       1.0000 0.95402  0.49397  0.40399  Biso   1.000  N 
  N4       1.0000 0.05642  0.49160  0.17102  Biso   1.000  N 
  N5       1.0000 0.55785  0.06811  0.66234  Biso   1.000  N 
  N6       1.0000 0.54641  0.09452  0.46527  Biso   1.000  N 
  N7       1.0000 0.45435  0.99339  0.39636  Biso   1.000  N 
  N8       1.0000 0.05788  0.56826  0.66966  Biso   1.000  N 
  N9       1.0000 0.15256  0.67537  0.61306  Biso   1.000  N 
  N10      1.0000 0.65212  0.17568  0.60985  Biso   1.000  N 
  N11      1.0000 0.04641  0.59448  0.47224  Biso   1.000  N 
  N12      1.0000 0.04430  0.46548  0.97525  Biso   1.000  N 
  N13      1.0000 0.36216  0.17894  0.94826  Biso   1.000  N 
  N14      1.0000 0.54462  0.96559  0.96839  Biso   1.000  N 
  N15      1.0000 0.55655  0.99184  0.16416  Biso   1.000  N 
  N16      1.0000 0.86066  0.38527  0.45353  Biso   1.000  N 
  N17      1.0000 0.96756  0.59669  0.09854  Biso   1.000  N 
  N18      1.0000 0.46748  0.09643  0.09107  Biso   1.000  N 
  N19      1.0000 0.36161  0.88399  0.44775  Biso   1.000  N 
  N20      1.0000 0.86230  0.67924  0.95482  Biso   1.000  N 
  N21      1.0000 0.64956  0.88289  0.11471  Biso   1.000  N 
  N22      1.0000 0.14981  0.38308  0.11658  Biso   1.000  N 
  N23      1.0000 0.45542  0.07021  0.89539  Biso   1.000  N 
  N24      1.0000 0.95550  0.57051  0.90278  Biso   1.000  N 
  O1       1.0000 0.16318  0.36187  0.73250  Biso   1.000  O 
  O2       1.0000 0.66582  0.19803  0.22636  Biso   1.000  O 
  O3       1.0000 0.16597  0.69707  0.22874  Biso   1.000  O 
  O4       1.0000 0.34808  0.86176  0.83154  Biso   1.000  O 
  O5       1.0000 0.84720  0.36211  0.83634  Biso   1.000  O 
  O6       1.0000 0.84882  0.70115  0.33811  Biso   1.000  O 
  O7       1.0000 0.66322  0.86091  0.73156  Biso   1.000  O 
  O8       1.0000 0.34887  0.20052  0.33202  Biso   1.000  O 
