data_image0
_cell_length_a       32.4397
_cell_length_b       14.0798
_cell_length_c       5.26295
_cell_angle_alpha    89.6571
_cell_angle_beta     90.1278
_cell_angle_gamma    89.712

_symmetry_space_group_name_H-M    "P 1"
_symmetry_int_tables_number       1

loop_
  _symmetry_equiv_pos_as_xyz
  'x, y, z'

loop_
  _atom_site_label
  _atom_site_occupancy
  _atom_site_fract_x
  _atom_site_fract_y
  _atom_site_fract_z
  _atom_site_thermal_displace_type
  _atom_site_B_iso_or_equiv
  _atom_site_type_symbol
  C1       1.0000 0.29820  0.80231  0.57259  Biso   1.000  C 
  C2       1.0000 0.34216  0.23624  0.13036  Biso   1.000  C 
  C3       1.0000 0.92342  0.45008  0.27264  Biso   1.000  C 
  C4       1.0000 0.58912  0.11191  0.79213  Biso   1.000  C 
  C5       1.0000 0.08922  0.61148  0.79196  Biso   1.000  C 
  C6       1.0000 0.23557  0.24196  0.82403  Biso   1.000  C 
  C7       1.0000 0.77720  0.72155  0.86419  Biso   1.000  C 
  C8       1.0000 0.27709  0.22122  0.86326  Biso   1.000  C 
  C9       1.0000 0.79819  0.75993  0.07322  Biso   1.000  C 
  C10      1.0000 0.60681  0.17590  0.61873  Biso   1.000  C 
  C11      1.0000 0.07697  0.69029  0.42911  Biso   1.000  C 
  C12      1.0000 0.29809  0.25955  0.07228  Biso   1.000  C 
  C13      1.0000 0.77673  0.81876  0.24203  Biso   1.000  C 
  C14      1.0000 0.73568  0.74223  0.82494  Biso   1.000  C 
  C15      1.0000 0.73521  0.83944  0.20279  Biso   1.000  C 
  C16      1.0000 0.23513  0.33913  0.20194  Biso   1.000  C 
  C17      1.0000 0.27664  0.31840  0.24113  Biso   1.000  C 
  C18      1.0000 0.71423  0.80115  0.99358  Biso   1.000  C 
  C19      1.0000 0.21414  0.30089  0.99271  Biso   1.000  C 
  C20      1.0000 0.67020  0.82470  0.93493  Biso   1.000  C 
  C21      1.0000 0.17011  0.32455  0.93411  Biso   1.000  C 
  C22      1.0000 0.17126  0.73137  0.43138  Biso   1.000  C 
  C23      1.0000 0.67100  0.23270  0.43221  Biso   1.000  C 
  C24      1.0000 0.27737  0.74242  0.74240  Biso   1.000  C 
  C25      1.0000 0.42423  0.11612  0.77277  Biso   1.000  C 
  C26      1.0000 0.92427  0.61655  0.77315  Biso   1.000  C 
  C27      1.0000 0.84227  0.73666  0.13129  Biso   1.000  C 
  C28      1.0000 0.60574  0.87999  0.12315  Biso   1.000  C 
  C29      1.0000 0.57678  0.19074  0.42943  Biso   1.000  C 
  C30      1.0000 0.90576  0.38613  0.44629  Biso   1.000  C 
  C31      1.0000 0.93582  0.37134  0.63542  Biso   1.000  C 
  C32      1.0000 0.10700  0.67522  0.61833  Biso   1.000  C 
  C33      1.0000 0.08823  0.44540  0.29149  Biso   1.000  C 
  C34      1.0000 0.58827  0.94564  0.29177  Biso   1.000  C 
  C35      1.0000 0.77707  0.24406  0.74370  Biso   1.000  C 
  C36      1.0000 0.23619  0.71964  0.70212  Biso   1.000  C 
  C37      1.0000 0.73589  0.22128  0.70349  Biso   1.000  C 
  C38      1.0000 0.21493  0.75683  0.49078  Biso   1.000  C 
  C39      1.0000 0.10566  0.37981  0.12259  Biso   1.000  C 
  C40      1.0000 0.07492  0.36191  0.94038  Biso   1.000  C 
  C41      1.0000 0.40594  0.88538  0.44580  Biso   1.000  C 
  C42      1.0000 0.57503  0.86198  0.94086  Biso   1.000  C 
  C43      1.0000 0.43599  0.87082  0.63506  Biso   1.000  C 
  C44      1.0000 0.42353  0.94950  0.27230  Biso   1.000  C 
  C45      1.0000 0.27694  0.83948  0.36120  Biso   1.000  C 
  C46      1.0000 0.23577  0.81668  0.32091  Biso   1.000  C 
  C47      1.0000 0.73550  0.31802  0.32176  Biso   1.000  C 
  C48      1.0000 0.77668  0.34081  0.36198  Biso   1.000  C 
  C49      1.0000 0.79793  0.30379  0.57360  Biso   1.000  C 
  C50      1.0000 0.34182  0.82805  0.63235  Biso   1.000  C 
  C51      1.0000 0.84158  0.32937  0.63314  Biso   1.000  C 
  C52      1.0000 0.93746  0.70002  0.12450  Biso   1.000  C 
  C53      1.0000 0.43735  0.19972  0.12399  Biso   1.000  C 
  C54      1.0000 0.90675  0.68196  0.94225  Biso   1.000  C 
  C55      1.0000 0.40666  0.18155  0.94166  Biso   1.000  C 
  C56      1.0000 0.71464  0.25829  0.49184  Biso   1.000  C 
  Co1      1.0000 0.50579  0.06341  0.27046  Biso   1.000  Co
  Co2      1.0000 0.00581  0.56340  0.27054  Biso   1.000  Co
  Co3      1.0000 0.50677  0.99876  0.79402  Biso   1.000  Co
  Co4      1.0000 0.00672  0.49893  0.79410  Biso   1.000  Co
  H1       1.0000 0.21913  0.21271  0.66186  Biso   1.000  H 
  H2       1.0000 0.41111  0.08413  0.60414  Biso   1.000  H 
  H3       1.0000 0.29308  0.34766  0.40331  Biso   1.000  H 
  H4       1.0000 0.79307  0.67447  0.73241  Biso   1.000  H 
  H5       1.0000 0.29294  0.17411  0.73141  Biso   1.000  H 
  H6       1.0000 0.65826  0.22022  0.81693  Biso   1.000  H 
  H7       1.0000 0.07580  0.31755  0.77304  Biso   1.000  H 
  H8       1.0000 0.91110  0.58463  0.60451  Biso   1.000  H 
  H9       1.0000 0.10174  0.58194  0.96672  Biso   1.000  H 
  H10      1.0000 0.93472  0.32861  0.80695  Biso   1.000  H 
  H11      1.0000 0.10144  0.47728  0.46001  Biso   1.000  H 
  H12      1.0000 0.43493  0.82806  0.80656  Biso   1.000  H 
  H13      1.0000 0.71925  0.71292  0.66282  Biso   1.000  H 
  H14      1.0000 0.41092  0.97884  0.09752  Biso   1.000  H 
  H15      1.0000 0.35456  0.84061  0.24770  Biso   1.000  H 
  H16      1.0000 0.85430  0.34172  0.24842  Biso   1.000  H 
  H17      1.0000 0.79315  0.84805  0.40421  Biso   1.000  H 
  H18      1.0000 0.57594  0.81755  0.77368  Biso   1.000  H 
  H19      1.0000 0.60146  0.97760  0.46025  Biso   1.000  H 
  H20      1.0000 0.79369  0.21580  0.90782  Biso   1.000  H 
  H21      1.0000 0.21912  0.84510  0.15707  Biso   1.000  H 
  H22      1.0000 0.07818  0.73300  0.25759  Biso   1.000  H 
  H23      1.0000 0.72050  0.17370  0.83681  Biso   1.000  H 
  H24      1.0000 0.29400  0.71403  0.90631  Biso   1.000  H 
  H25      1.0000 0.43636  0.24406  0.29133  Biso   1.000  H 
  H26      1.0000 0.71934  0.88649  0.33471  Biso   1.000  H 
  H27      1.0000 0.29232  0.88718  0.22817  Biso   1.000  H 
  H28      1.0000 0.22080  0.67194  0.83516  Biso   1.000  H 
  H29      1.0000 0.93652  0.74433  0.29190  Biso   1.000  H 
  H30      1.0000 0.71887  0.34626  0.15765  Biso   1.000  H 
  H31      1.0000 0.79208  0.38836  0.22864  Biso   1.000  H 
  H32      1.0000 0.57793  0.23352  0.25802  Biso   1.000  H 
  H33      1.0000 0.60168  0.08244  0.96687  Biso   1.000  H 
  H34      1.0000 0.15855  0.71917  0.81616  Biso   1.000  H 
  H35      1.0000 0.15776  0.33685  0.31912  Biso   1.000  H 
  H36      1.0000 0.65784  0.83711  0.31992  Biso   1.000  H 
  H37      1.0000 0.35447  0.22396  0.74512  Biso   1.000  H 
  H38      1.0000 0.85454  0.72447  0.74603  Biso   1.000  H 
  H39      1.0000 0.91083  0.47947  0.09787  Biso   1.000  H 
  H40      1.0000 0.21927  0.38620  0.33386  Biso   1.000  H 
  N1       1.0000 0.04117  0.41352  0.00102  Biso   1.000  N 
  N2       1.0000 0.96925  0.42371  0.57542  Biso   1.000  N 
  N3       1.0000 0.96152  0.47213  0.35615  Biso   1.000  N 
  N4       1.0000 0.04940  0.46489  0.21452  Biso   1.000  N 
  N5       1.0000 0.14700  0.71149  0.63606  Biso   1.000  N 
  N6       1.0000 0.54333  0.13844  0.48921  Biso   1.000  N 
  N7       1.0000 0.05107  0.58984  0.70842  Biso   1.000  N 
  N8       1.0000 0.64674  0.21253  0.63674  Biso   1.000  N 
  N9       1.0000 0.04344  0.63833  0.48912  Biso   1.000  N 
  N10      1.0000 0.55102  0.08995  0.70841  Biso   1.000  N 
  N11      1.0000 0.46935  0.92344  0.57524  Biso   1.000  N 
  N12      1.0000 0.46158  0.97185  0.35600  Biso   1.000  N 
  N13      1.0000 0.64599  0.84416  0.14002  Biso   1.000  N 
  N14      1.0000 0.36606  0.84841  0.42789  Biso   1.000  N 
  N15      1.0000 0.36635  0.21700  0.92499  Biso   1.000  N 
  N16      1.0000 0.86583  0.34946  0.42856  Biso   1.000  N 
  N17      1.0000 0.97128  0.64866  0.06374  Biso   1.000  N 
  N18      1.0000 0.47120  0.14843  0.06352  Biso   1.000  N 
  N19      1.0000 0.54945  0.96504  0.21458  Biso   1.000  N 
  N20      1.0000 0.86645  0.71748  0.92583  Biso   1.000  N 
  N21      1.0000 0.46309  0.09700  0.84992  Biso   1.000  N 
  N22      1.0000 0.54126  0.91357  0.00119  Biso   1.000  N 
  N23      1.0000 0.96312  0.59731  0.85009  Biso   1.000  N 
  N24      1.0000 0.14590  0.34394  0.13925  Biso   1.000  N 
  O1       1.0000 0.85542  0.73403  0.35438  Biso   1.000  O 
  O2       1.0000 0.65715  0.82742  0.71165  Biso   1.000  O 
  O3       1.0000 0.15707  0.32737  0.71083  Biso   1.000  O 
  O4       1.0000 0.65828  0.22926  0.20832  Biso   1.000  O 
  O5       1.0000 0.15852  0.72782  0.20755  Biso   1.000  O 
  O6       1.0000 0.35454  0.83156  0.85629  Biso   1.000  O 
  O7       1.0000 0.85431  0.33289  0.85700  Biso   1.000  O 
  O8       1.0000 0.35531  0.23367  0.35343  Biso   1.000  O 
