data_image0
_cell_length_a       32.024
_cell_length_b       15.2771
_cell_length_c       5.25247
_cell_angle_alpha    89.6783
_cell_angle_beta     89.8488
_cell_angle_gamma    89.7498

_symmetry_space_group_name_H-M    "P 1"
_symmetry_int_tables_number       1

loop_
  _symmetry_equiv_pos_as_xyz
  'x, y, z'

loop_
  _atom_site_label
  _atom_site_occupancy
  _atom_site_fract_x
  _atom_site_fract_y
  _atom_site_fract_z
  _atom_site_thermal_displace_type
  _atom_site_B_iso_or_equiv
  _atom_site_type_symbol
  C1       1.0000 0.29802  0.80620  0.57232  Biso   1.000  C 
  C2       1.0000 0.34191  0.22917  0.13042  Biso   1.000  C 
  C3       1.0000 0.92249  0.45482  0.27332  Biso   1.000  C 
  C4       1.0000 0.59002  0.10700  0.79198  Biso   1.000  C 
  C5       1.0000 0.09016  0.60649  0.79161  Biso   1.000  C 
  C6       1.0000 0.23452  0.24803  0.82262  Biso   1.000  C 
  C7       1.0000 0.77601  0.72396  0.86273  Biso   1.000  C 
  C8       1.0000 0.27591  0.22359  0.86218  Biso   1.000  C 
  C9       1.0000 0.79809  0.75628  0.07269  Biso   1.000  C 
  C10      1.0000 0.60736  0.16739  0.61948  Biso   1.000  C 
  C11      1.0000 0.07706  0.67968  0.43028  Biso   1.000  C 
  C12      1.0000 0.29798  0.25599  0.07210  Biso   1.000  C 
  C13      1.0000 0.77783  0.81306  0.24212  Biso   1.000  C 
  C14      1.0000 0.73462  0.74846  0.82330  Biso   1.000  C 
  C15      1.0000 0.73644  0.83756  0.20269  Biso   1.000  C 
  C16      1.0000 0.23633  0.33735  0.20158  Biso   1.000  C 
  C17      1.0000 0.27771  0.31287  0.24119  Biso   1.000  C 
  C18      1.0000 0.71436  0.80524  0.99273  Biso   1.000  C 
  C19      1.0000 0.21426  0.30488  0.99179  Biso   1.000  C 
  C20      1.0000 0.67043  0.83209  0.93467  Biso   1.000  C 
  C21      1.0000 0.17031  0.33165  0.93373  Biso   1.000  C 
  C22      1.0000 0.17159  0.72492  0.43226  Biso   1.000  C 
  C23      1.0000 0.67134  0.22593  0.43318  Biso   1.000  C 
  C24      1.0000 0.27841  0.74858  0.74299  Biso   1.000  C 
  C25      1.0000 0.42342  0.11090  0.77419  Biso   1.000  C 
  C26      1.0000 0.92349  0.61123  0.77410  Biso   1.000  C 
  C27      1.0000 0.84203  0.72947  0.13073  Biso   1.000  C 
  C28      1.0000 0.60616  0.88898  0.12307  Biso   1.000  C 
  C29      1.0000 0.57683  0.18022  0.43082  Biso   1.000  C 
  C30      1.0000 0.90520  0.39436  0.44585  Biso   1.000  C 
  C31      1.0000 0.93572  0.38167  0.63460  Biso   1.000  C 
  C32      1.0000 0.10757  0.66671  0.61891  Biso   1.000  C 
  C33      1.0000 0.08899  0.45029  0.29062  Biso   1.000  C 
  C34      1.0000 0.58908  0.95078  0.29099  Biso   1.000  C 
  C35      1.0000 0.77811  0.24966  0.74440  Biso   1.000  C 
  C36      1.0000 0.23741  0.72227  0.70317  Biso   1.000  C 
  C37      1.0000 0.73711  0.22342  0.70452  Biso   1.000  C 
  C38      1.0000 0.21509  0.75354  0.49132  Biso   1.000  C 
  C39      1.0000 0.10604  0.38855  0.12240  Biso   1.000  C 
  C40      1.0000 0.07475  0.37296  0.94090  Biso   1.000  C 
  C41      1.0000 0.40540  0.89377  0.44530  Biso   1.000  C 
  C42      1.0000 0.57490  0.87327  0.94151  Biso   1.000  C 
  C43      1.0000 0.43591  0.88117  0.63411  Biso   1.000  C 
  C44      1.0000 0.42263  0.95436  0.27296  Biso   1.000  C 
  C45      1.0000 0.27570  0.83744  0.36038  Biso   1.000  C 
  C46      1.0000 0.23471  0.81111  0.32052  Biso   1.000  C 
  C47      1.0000 0.73448  0.31207  0.32149  Biso   1.000  C 
  C48      1.0000 0.77548  0.33832  0.36135  Biso   1.000  C 
  C49      1.0000 0.79777  0.30712  0.57346  Biso   1.000  C 
  C50      1.0000 0.34148  0.83500  0.63160  Biso   1.000  C 
  C51      1.0000 0.84125  0.33582  0.63251  Biso   1.000  C 
  C52      1.0000 0.93760  0.68861  0.12395  Biso   1.000  C 
  C53      1.0000 0.43751  0.18837  0.12389  Biso   1.000  C 
  C54      1.0000 0.90636  0.67292  0.94216  Biso   1.000  C 
  C55      1.0000 0.40627  0.17259  0.94219  Biso   1.000  C 
  C56      1.0000 0.71482  0.25459  0.49238  Biso   1.000  C 
  Co1      1.0000 0.50585  0.06074  0.27166  Biso   1.000  Co
  Co2      1.0000 0.00585  0.56068  0.27131  Biso   1.000  Co
  Co3      1.0000 0.50668  0.00112  0.79382  Biso   1.000  Co
  Co4      1.0000 0.00667  0.50127  0.79403  Biso   1.000  Co
  H1       1.0000 0.21726  0.22329  0.65992  Biso   1.000  H 
  H2       1.0000 0.40989  0.08157  0.60600  Biso   1.000  H 
  H3       1.0000 0.29497  0.33760  0.40395  Biso   1.000  H 
  H4       1.0000 0.79090  0.67879  0.73012  Biso   1.000  H 
  H5       1.0000 0.29082  0.17837  0.72978  Biso   1.000  H 
  H6       1.0000 0.65861  0.21193  0.81871  Biso   1.000  H 
  H7       1.0000 0.07524  0.33159  0.77414  Biso   1.000  H 
  H8       1.0000 0.90994  0.58197  0.60583  Biso   1.000  H 
  H9       1.0000 0.10304  0.57937  0.96592  Biso   1.000  H 
  H10      1.0000 0.93496  0.34172  0.80543  Biso   1.000  H 
  H11      1.0000 0.10258  0.47949  0.45882  Biso   1.000  H 
  H12      1.0000 0.43519  0.84115  0.80481  Biso   1.000  H 
  H13      1.0000 0.71735  0.72380  0.66051  Biso   1.000  H 
  H14      1.0000 0.40970  0.98133  0.09859  Biso   1.000  H 
  H15      1.0000 0.35422  0.84883  0.24608  Biso   1.000  H 
  H16      1.0000 0.85396  0.34964  0.24693  Biso   1.000  H 
  H17      1.0000 0.79509  0.83769  0.40499  Biso   1.000  H 
  H18      1.0000 0.57542  0.83183  0.77494  Biso   1.000  H 
  H19      1.0000 0.60264  0.98007  0.45917  Biso   1.000  H 
  H20      1.0000 0.79555  0.22592  0.90885  Biso   1.000  H 
  H21      1.0000 0.21725  0.83487  0.15621  Biso   1.000  H 
  H22      1.0000 0.07789  0.71961  0.25941  Biso   1.000  H 
  H23      1.0000 0.72269  0.17789  0.83869  Biso   1.000  H 
  H24      1.0000 0.29587  0.72479  0.90728  Biso   1.000  H 
  H25      1.0000 0.43696  0.22980  0.29049  Biso   1.000  H 
  H26      1.0000 0.72155  0.88271  0.33535  Biso   1.000  H 
  H27      1.0000 0.29009  0.88308  0.22640  Biso   1.000  H 
  H28      1.0000 0.22302  0.67662  0.83713  Biso   1.000  H 
  H29      1.0000 0.93705  0.73003  0.29058  Biso   1.000  H 
  H30      1.0000 0.71705  0.33578  0.15701  Biso   1.000  H 
  H31      1.0000 0.78990  0.38386  0.22722  Biso   1.000  H 
  H32      1.0000 0.57761  0.22021  0.26007  Biso   1.000  H 
  H33      1.0000 0.60295  0.07989  0.96619  Biso   1.000  H 
  H34      1.0000 0.15890  0.71102  0.81779  Biso   1.000  H 
  H35      1.0000 0.15801  0.34535  0.31970  Biso   1.000  H 
  H36      1.0000 0.65812  0.84580  0.32063  Biso   1.000  H 
  H37      1.0000 0.35429  0.21560  0.74452  Biso   1.000  H 
  H38      1.0000 0.85437  0.71601  0.74474  Biso   1.000  H 
  H39      1.0000 0.90957  0.48181  0.09896  Biso   1.000  H 
  H40      1.0000 0.22144  0.38260  0.33398  Biso   1.000  H 
  N1       1.0000 0.04106  0.42214  0.00148  Biso   1.000  N 
  N2       1.0000 0.96904  0.43174  0.57521  Biso   1.000  N 
  N3       1.0000 0.96084  0.47670  0.35697  Biso   1.000  N 
  N4       1.0000 0.04984  0.46968  0.21405  Biso   1.000  N 
  N5       1.0000 0.14752  0.70292  0.63724  Biso   1.000  N 
  N6       1.0000 0.54346  0.13032  0.49029  Biso   1.000  N 
  N7       1.0000 0.05175  0.58499  0.70821  Biso   1.000  N 
  N8       1.0000 0.64725  0.20384  0.63807  Biso   1.000  N 
  N9       1.0000 0.04362  0.62999  0.48989  Biso   1.000  N 
  N10      1.0000 0.55164  0.08529  0.70847  Biso   1.000  N 
  N11      1.0000 0.46919  0.93140  0.57494  Biso   1.000  N 
  N12      1.0000 0.46095  0.97641  0.35680  Biso   1.000  N 
  N13      1.0000 0.64640  0.85339  0.14031  Biso   1.000  N 
  N14      1.0000 0.36557  0.85704  0.42669  Biso   1.000  N 
  N15      1.0000 0.36600  0.20803  0.92486  Biso   1.000  N 
  N16      1.0000 0.86533  0.35781  0.42750  Biso   1.000  N 
  N17      1.0000 0.97134  0.63958  0.06364  Biso   1.000  N 
  N18      1.0000 0.47127  0.13938  0.06361  Biso   1.000  N 
  N19      1.0000 0.54993  0.97005  0.21419  Biso   1.000  N 
  N20      1.0000 0.86610  0.70840  0.92501  Biso   1.000  N 
  N21      1.0000 0.46259  0.09175  0.85109  Biso   1.000  N 
  N22      1.0000 0.54119  0.92241  0.00180  Biso   1.000  N 
  N23      1.0000 0.96264  0.59200  0.85101  Biso   1.000  N 
  N24      1.0000 0.14628  0.35293  0.13942  Biso   1.000  N 
  O1       1.0000 0.85521  0.72608  0.35413  Biso   1.000  O 
  O2       1.0000 0.65724  0.83538  0.71129  Biso   1.000  O 
  O3       1.0000 0.15710  0.33489  0.71037  Biso   1.000  O 
  O4       1.0000 0.65853  0.22207  0.20907  Biso   1.000  O 
  O5       1.0000 0.15878  0.72109  0.20816  Biso   1.000  O 
  O6       1.0000 0.35424  0.83902  0.85578  Biso   1.000  O 
  O7       1.0000 0.85406  0.33976  0.85663  Biso   1.000  O 
  O8       1.0000 0.35507  0.22582  0.35390  Biso   1.000  O 
