data_image0
_cell_length_a       25.582
_cell_length_b       25.0052
_cell_length_c       6.30092
_cell_angle_alpha    90.0347
_cell_angle_beta     84.7338
_cell_angle_gamma    89.9981

_symmetry_space_group_name_H-M    "P 1"
_symmetry_int_tables_number       1

loop_
  _symmetry_equiv_pos_as_xyz
  'x, y, z'

loop_
  _atom_site_label
  _atom_site_occupancy
  _atom_site_fract_x
  _atom_site_fract_y
  _atom_site_fract_z
  _atom_site_thermal_displace_type
  _atom_site_B_iso_or_equiv
  _atom_site_type_symbol
  C1       1.0000 0.29622  0.81739  0.57167  Biso   1.000  C 
  C2       1.0000 0.33715  0.20576  0.13314  Biso   1.000  C 
  C3       1.0000 0.73600  0.78079  0.83607  Biso   1.000  C 
  C4       1.0000 0.59801  0.09591  0.71579  Biso   1.000  C 
  C5       1.0000 0.09833  0.59558  0.72278  Biso   1.000  C 
  C6       1.0000 0.23577  0.28122  0.83524  Biso   1.000  C 
  C7       1.0000 0.77505  0.74449  0.87699  Biso   1.000  C 
  C8       1.0000 0.27486  0.24480  0.87447  Biso   1.000  C 
  C9       1.0000 0.79558  0.74398  0.07643  Biso   1.000  C 
  C10      1.0000 0.61345  0.13610  0.56739  Biso   1.000  C 
  C11      1.0000 0.58102  0.12948  0.40078  Biso   1.000  C 
  C12      1.0000 0.08123  0.62911  0.40784  Biso   1.000  C 
  C13      1.0000 0.29572  0.24399  0.07324  Biso   1.000  C 
  C14      1.0000 0.77581  0.78073  0.23199  Biso   1.000  C 
  C15      1.0000 0.27623  0.28060  0.22989  Biso   1.000  C 
  C16      1.0000 0.73675  0.81703  0.19108  Biso   1.000  C 
  C17      1.0000 0.23713  0.31702  0.19067  Biso   1.000  C 
  C18      1.0000 0.71626  0.81758  0.99155  Biso   1.000  C 
  C19      1.0000 0.21628  0.31784  0.99189  Biso   1.000  C 
  C20      1.0000 0.67496  0.85571  0.92960  Biso   1.000  C 
  C21      1.0000 0.17482  0.35603  0.93203  Biso   1.000  C 
  C22      1.0000 0.17775  0.70272  0.42954  Biso   1.000  C 
  C23      1.0000 0.67706  0.20392  0.42660  Biso   1.000  C 
  C24      1.0000 0.27808  0.77989  0.72693  Biso   1.000  C 
  C25      1.0000 0.41593  0.09812  0.84015  Biso   1.000  C 
  C26      1.0000 0.91612  0.59829  0.84721  Biso   1.000  C 
  C27      1.0000 0.83700  0.70597  0.13797  Biso   1.000  C 
  C28      1.0000 0.91407  0.46583  0.34925  Biso   1.000  C 
  C29      1.0000 0.11387  0.63560  0.57375  Biso   1.000  C 
  C30      1.0000 0.89888  0.42546  0.49723  Biso   1.000  C 
  C31      1.0000 0.93128  0.43219  0.66388  Biso   1.000  C 
  C32      1.0000 0.41471  0.96511  0.34119  Biso   1.000  C 
  C33      1.0000 0.09590  0.46355  0.22510  Biso   1.000  C 
  C34      1.0000 0.59624  0.96402  0.21805  Biso   1.000  C 
  C35      1.0000 0.77694  0.28037  0.72912  Biso   1.000  C 
  C36      1.0000 0.23989  0.74250  0.68716  Biso   1.000  C 
  C37      1.0000 0.73885  0.24307  0.68714  Biso   1.000  C 
  C38      1.0000 0.21862  0.74160  0.48928  Biso   1.000  C 
  C39      1.0000 0.11104  0.42341  0.07577  Biso   1.000  C 
  C40      1.0000 0.61132  0.92357  0.07007  Biso   1.000  C 
  C41      1.0000 0.07880  0.43066  0.90899  Biso   1.000  C 
  C42      1.0000 0.39968  0.92477  0.48956  Biso   1.000  C 
  C43      1.0000 0.57922  0.93062  0.90266  Biso   1.000  C 
  C44      1.0000 0.43205  0.93177  0.65615  Biso   1.000  C 
  C45      1.0000 0.73585  0.28075  0.33561  Biso   1.000  C 
  C46      1.0000 0.27499  0.81645  0.37367  Biso   1.000  C 
  C47      1.0000 0.23681  0.77905  0.33387  Biso   1.000  C 
  C48      1.0000 0.77390  0.31807  0.37767  Biso   1.000  C 
  C49      1.0000 0.79507  0.31836  0.57582  Biso   1.000  C 
  C50      1.0000 0.33686  0.85648  0.63202  Biso   1.000  C 
  C51      1.0000 0.83567  0.35726  0.63799  Biso   1.000  C 
  C52      1.0000 0.93289  0.63119  0.16370  Biso   1.000  C 
  C53      1.0000 0.43296  0.13099  0.15643  Biso   1.000  C 
  C54      1.0000 0.90087  0.63846  0.99622  Biso   1.000  C 
  C55      1.0000 0.40078  0.13826  0.98948  Biso   1.000  C 
  C56      1.0000 0.71771  0.24276  0.48890  Biso   1.000  C 
  Co1      1.0000 0.00590  0.54312  0.28668  Biso   1.000  Co
  Co2      1.0000 0.50604  0.04310  0.27899  Biso   1.000  Co
  Co3      1.0000 0.00602  0.51874  0.78636  Biso   1.000  Co
  Co4      1.0000 0.50624  0.01873  0.77846  Biso   1.000  Co
  H1       1.0000 0.40159  0.08926  0.68694  Biso   1.000  H 
  H2       1.0000 0.78852  0.71663  0.75000  Biso   1.000  H 
  H3       1.0000 0.28810  0.21702  0.74687  Biso   1.000  H 
  H4       1.0000 0.11280  0.58631  0.87534  Biso   1.000  H 
  H5       1.0000 0.66226  0.18093  0.73989  Biso   1.000  H 
  H6       1.0000 0.79374  0.28059  0.88185  Biso   1.000  H 
  H7       1.0000 0.07797  0.40880  0.76107  Biso   1.000  H 
  H8       1.0000 0.90189  0.58940  0.69384  Biso   1.000  H 
  H9       1.0000 0.21919  0.28181  0.68208  Biso   1.000  H 
  H10      1.0000 0.93214  0.41001  0.81096  Biso   1.000  H 
  H11      1.0000 0.61053  0.97315  0.37112  Biso   1.000  H 
  H12      1.0000 0.11026  0.47243  0.37826  Biso   1.000  H 
  H13      1.0000 0.43302  0.90966  0.80331  Biso   1.000  H 
  H14      1.0000 0.71963  0.78117  0.68244  Biso   1.000  H 
  H15      1.0000 0.40026  0.97419  0.18844  Biso   1.000  H 
  H16      1.0000 0.35090  0.87952  0.31832  Biso   1.000  H 
  H17      1.0000 0.85032  0.38032  0.32469  Biso   1.000  H 
  H18      1.0000 0.79215  0.78033  0.38567  Biso   1.000  H 
  H19      1.0000 0.57842  0.90849  0.75534  Biso   1.000  H 
  H20      1.0000 0.29283  0.28001  0.38304  Biso   1.000  H 
  H21      1.0000 0.72664  0.21423  0.81206  Biso   1.000  H 
  H22      1.0000 0.22386  0.34476  0.31835  Biso   1.000  H 
  H23      1.0000 0.72326  0.84487  0.31811  Biso   1.000  H 
  H24      1.0000 0.43376  0.15283  0.30442  Biso   1.000  H 
  H25      1.0000 0.78605  0.34696  0.25288  Biso   1.000  H 
  H26      1.0000 0.28721  0.84487  0.24720  Biso   1.000  H 
  H27      1.0000 0.21993  0.77833  0.18132  Biso   1.000  H 
  H28      1.0000 0.22771  0.71402  0.81346  Biso   1.000  H 
  H29      1.0000 0.93359  0.65308  0.31164  Biso   1.000  H 
  H30      1.0000 0.29499  0.78059  0.87941  Biso   1.000  H 
  H31      1.0000 0.71901  0.28052  0.18291  Biso   1.000  H 
  H32      1.0000 0.08050  0.65114  0.26035  Biso   1.000  H 
  H33      1.0000 0.58029  0.15158  0.25348  Biso   1.000  H 
  H34      1.0000 0.61237  0.08665  0.86854  Biso   1.000  H 
  H35      1.0000 0.16320  0.68048  0.74392  Biso   1.000  H 
  H36      1.0000 0.15999  0.37829  0.24630  Biso   1.000  H 
  H37      1.0000 0.66000  0.87873  0.24286  Biso   1.000  H 
  H38      1.0000 0.35184  0.18340  0.81895  Biso   1.000  H 
  H39      1.0000 0.89963  0.47510  0.19664  Biso   1.000  H 
  H40      1.0000 0.85210  0.68338  0.82430  Biso   1.000  H 
  N1       1.0000 0.46435  0.97359  0.60713  Biso   1.000  N 
  N2       1.0000 0.96379  0.47388  0.61518  Biso   1.000  N 
  N3       1.0000 0.95311  0.49467  0.42446  Biso   1.000  N 
  N4       1.0000 0.05709  0.49277  0.15033  Biso   1.000  N 
  N5       1.0000 0.55882  0.06727  0.64084  Biso   1.000  N 
  N6       1.0000 0.54826  0.08801  0.44991  Biso   1.000  N 
  N7       1.0000 0.45360  0.99420  0.41622  Biso   1.000  N 
  N8       1.0000 0.05887  0.56713  0.64873  Biso   1.000  N 
  N9       1.0000 0.15313  0.67361  0.59411  Biso   1.000  N 
  N10      1.0000 0.65240  0.17431  0.58959  Biso   1.000  N 
  N11      1.0000 0.04827  0.58786  0.45780  Biso   1.000  N 
  N12      1.0000 0.04648  0.47246  0.95868  Biso   1.000  N 
  N13      1.0000 0.36200  0.17673  0.96873  Biso   1.000  N 
  N14      1.0000 0.54699  0.97259  0.95085  Biso   1.000  N 
  N15      1.0000 0.55758  0.99320  0.14208  Biso   1.000  N 
  N16      1.0000 0.86013  0.38702  0.47500  Biso   1.000  N 
  N17      1.0000 0.96524  0.58936  0.11460  Biso   1.000  N 
  N18      1.0000 0.46528  0.08918  0.10679  Biso   1.000  N 
  N19      1.0000 0.36102  0.88619  0.46822  Biso   1.000  N 
  N20      1.0000 0.86213  0.67688  0.97440  Biso   1.000  N 
  N21      1.0000 0.64997  0.88508  0.09268  Biso   1.000  N 
  N22      1.0000 0.14985  0.38496  0.09649  Biso   1.000  N 
  N23      1.0000 0.45472  0.06887  0.91500  Biso   1.000  N 
  N24      1.0000 0.95480  0.56903  0.92272  Biso   1.000  N 
  O1       1.0000 0.16388  0.36091  0.74493  Biso   1.000  O 
  O2       1.0000 0.66630  0.19929  0.23916  Biso   1.000  O 
  O3       1.0000 0.16679  0.69766  0.24252  Biso   1.000  O 
  O4       1.0000 0.34796  0.86128  0.81895  Biso   1.000  O 
  O5       1.0000 0.84650  0.36188  0.82535  Biso   1.000  O 
  O6       1.0000 0.84778  0.70135  0.32541  Biso   1.000  O 
  O7       1.0000 0.66419  0.86021  0.74214  Biso   1.000  O 
  O8       1.0000 0.34813  0.20092  0.32020  Biso   1.000  O 
