data_image0
_cell_length_a       29.2736
_cell_length_b       20.7092
_cell_length_c       5.30504
_cell_angle_alpha    89.74
_cell_angle_beta     87.9058
_cell_angle_gamma    89.9979

_symmetry_space_group_name_H-M    "P 1"
_symmetry_int_tables_number       1

loop_
  _symmetry_equiv_pos_as_xyz
  'x, y, z'

loop_
  _atom_site_label
  _atom_site_occupancy
  _atom_site_fract_x
  _atom_site_fract_y
  _atom_site_fract_z
  _atom_site_thermal_displace_type
  _atom_site_B_iso_or_equiv
  _atom_site_type_symbol
  C1       1.0000 0.29714  0.81478  0.57098  Biso   1.000  C 
  C2       1.0000 0.33858  0.20899  0.13119  Biso   1.000  C 
  C3       1.0000 0.72978  0.76685  0.82540  Biso   1.000  C 
  C4       1.0000 0.59568  0.09573  0.78132  Biso   1.000  C 
  C5       1.0000 0.09585  0.59518  0.78133  Biso   1.000  C 
  C6       1.0000 0.22987  0.26712  0.82510  Biso   1.000  C 
  C7       1.0000 0.76952  0.73193  0.86466  Biso   1.000  C 
  C8       1.0000 0.26959  0.23214  0.86440  Biso   1.000  C 
  C9       1.0000 0.79609  0.74541  0.07316  Biso   1.000  C 
  C10      1.0000 0.61086  0.14503  0.61565  Biso   1.000  C 
  C11      1.0000 0.57790  0.14871  0.42957  Biso   1.000  C 
  C12      1.0000 0.07823  0.64831  0.42965  Biso   1.000  C 
  C13      1.0000 0.29616  0.24560  0.07293  Biso   1.000  C 
  C14      1.0000 0.78192  0.79427  0.24069  Biso   1.000  C 
  C15      1.0000 0.28201  0.29448  0.24040  Biso   1.000  C 
  C16      1.0000 0.74218  0.82918  0.20147  Biso   1.000  C 
  C17      1.0000 0.24229  0.32945  0.20113  Biso   1.000  C 
  C18      1.0000 0.71561  0.81570  0.99299  Biso   1.000  C 
  C19      1.0000 0.21571  0.31599  0.99261  Biso   1.000  C 
  C20      1.0000 0.67323  0.85239  0.93469  Biso   1.000  C 
  C21      1.0000 0.17331  0.35263  0.93430  Biso   1.000  C 
  C22      1.0000 0.17478  0.70699  0.43280  Biso   1.000  C 
  C23      1.0000 0.67425  0.20821  0.43376  Biso   1.000  C 
  C24      1.0000 0.28301  0.76577  0.73972  Biso   1.000  C 
  C25      1.0000 0.41777  0.09785  0.78584  Biso   1.000  C 
  C26      1.0000 0.91780  0.59782  0.78610  Biso   1.000  C 
  C27      1.0000 0.83853  0.70885  0.13133  Biso   1.000  C 
  C28      1.0000 0.91695  0.46605  0.28383  Biso   1.000  C 
  C29      1.0000 0.11122  0.64433  0.61549  Biso   1.000  C 
  C30      1.0000 0.90198  0.41660  0.44935  Biso   1.000  C 
  C31      1.0000 0.93497  0.41314  0.63527  Biso   1.000  C 
  C32      1.0000 0.41705  0.96563  0.28314  Biso   1.000  C 
  C33      1.0000 0.09442  0.46422  0.27906  Biso   1.000  C 
  C34      1.0000 0.59440  0.96417  0.27907  Biso   1.000  C 
  C35      1.0000 0.78246  0.26699  0.74108  Biso   1.000  C 
  C36      1.0000 0.24343  0.73057  0.70048  Biso   1.000  C 
  C37      1.0000 0.74288  0.23179  0.70173  Biso   1.000  C 
  C38      1.0000 0.21698  0.74395  0.49094  Biso   1.000  C 
  C39      1.0000 0.10951  0.41445  0.11714  Biso   1.000  C 
  C40      1.0000 0.60949  0.91435  0.11739  Biso   1.000  C 
  C41      1.0000 0.07541  0.40802  0.93871  Biso   1.000  C 
  C42      1.0000 0.40226  0.91598  0.44827  Biso   1.000  C 
  C43      1.0000 0.57543  0.90795  0.93874  Biso   1.000  C 
  C44      1.0000 0.43522  0.91274  0.63443  Biso   1.000  C 
  C45      1.0000 0.73049  0.29441  0.32421  Biso   1.000  C 
  C46      1.0000 0.27073  0.82809  0.36127  Biso   1.000  C 
  C47      1.0000 0.23113  0.79293  0.32211  Biso   1.000  C 
  C48      1.0000 0.77005  0.32963  0.36367  Biso   1.000  C 
  C49      1.0000 0.79656  0.31612  0.57284  Biso   1.000  C 
  C50      1.0000 0.33921  0.85198  0.62982  Biso   1.000  C 
  C51      1.0000 0.83871  0.35315  0.63149  Biso   1.000  C 
  C52      1.0000 0.93651  0.65400  0.12700  Biso   1.000  C 
  C53      1.0000 0.43652  0.15397  0.12680  Biso   1.000  C 
  C54      1.0000 0.90248  0.64741  0.94828  Biso   1.000  C 
  C55      1.0000 0.40248  0.14743  0.94812  Biso   1.000  C 
  C56      1.0000 0.71639  0.24526  0.49241  Biso   1.000  C 
  Co1      1.0000 0.00568  0.55202  0.27222  Biso   1.000  Co
  Co2      1.0000 0.50563  0.05191  0.27200  Biso   1.000  Co
  Co3      1.0000 0.00670  0.51051  0.79291  Biso   1.000  Co
  Co4      1.0000 0.50671  0.01056  0.79263  Biso   1.000  Co
  H1       1.0000 0.40225  0.07804  0.62035  Biso   1.000  H 
  H2       1.0000 0.77947  0.69386  0.73232  Biso   1.000  H 
  H3       1.0000 0.27950  0.19402  0.73218  Biso   1.000  H 
  H4       1.0000 0.11052  0.57703  0.95266  Biso   1.000  H 
  H5       1.0000 0.66099  0.19114  0.81477  Biso   1.000  H 
  H6       1.0000 0.80312  0.25690  0.90331  Biso   1.000  H 
  H7       1.0000 0.07394  0.37656  0.77677  Biso   1.000  H 
  H8       1.0000 0.90231  0.57795  0.62066  Biso   1.000  H 
  H9       1.0000 0.20913  0.25705  0.66356  Biso   1.000  H 
  H10      1.0000 0.93637  0.38256  0.80082  Biso   1.000  H 
  H11      1.0000 0.60994  0.98397  0.44448  Biso   1.000  H 
  H12      1.0000 0.11001  0.48404  0.44432  Biso   1.000  H 
  H13      1.0000 0.43669  0.88217  0.79995  Biso   1.000  H 
  H14      1.0000 0.70904  0.75676  0.66387  Biso   1.000  H 
  H15      1.0000 0.40218  0.98344  0.11183  Biso   1.000  H 
  H16      1.0000 0.35244  0.86929  0.24886  Biso   1.000  H 
  H17      1.0000 0.85195  0.37020  0.25043  Biso   1.000  H 
  H18      1.0000 0.80269  0.80440  0.40209  Biso   1.000  H 
  H19      1.0000 0.57397  0.87641  0.77705  Biso   1.000  H 
  H20      1.0000 0.30277  0.30458  0.40182  Biso   1.000  H 
  H21      1.0000 0.73299  0.19349  0.83449  Biso   1.000  H 
  H22      1.0000 0.23237  0.36754  0.33337  Biso   1.000  H 
  H23      1.0000 0.73226  0.86730  0.33360  Biso   1.000  H 
  H24      1.0000 0.43787  0.18539  0.28890  Biso   1.000  H 
  H25      1.0000 0.77990  0.36800  0.23110  Biso   1.000  H 
  H26      1.0000 0.28068  0.86625  0.22802  Biso   1.000  H 
  H27      1.0000 0.21050  0.80290  0.15966  Biso   1.000  H 
  H28      1.0000 0.23350  0.69235  0.83356  Biso   1.000  H 
  H29      1.0000 0.93785  0.68543  0.28907  Biso   1.000  H 
  H30      1.0000 0.30364  0.75583  0.90214  Biso   1.000  H 
  H31      1.0000 0.70984  0.30450  0.16192  Biso   1.000  H 
  H32      1.0000 0.07710  0.67886  0.26391  Biso   1.000  H 
  H33      1.0000 0.57666  0.17924  0.26383  Biso   1.000  H 
  H34      1.0000 0.61043  0.07774  0.95266  Biso   1.000  H 
  H35      1.0000 0.16152  0.69017  0.81413  Biso   1.000  H 
  H36      1.0000 0.16046  0.36960  0.31540  Biso   1.000  H 
  H37      1.0000 0.66040  0.86937  0.31571  Biso   1.000  H 
  H38      1.0000 0.35141  0.19212  0.75006  Biso   1.000  H 
  H39      1.0000 0.90214  0.48390  0.11247  Biso   1.000  H 
  H40      1.0000 0.85140  0.69204  0.75016  Biso   1.000  H 
  N1       1.0000 0.46742  0.95772  0.58060  Biso   1.000  N 
  N2       1.0000 0.96737  0.45780  0.58087  Biso   1.000  N 
  N3       1.0000 0.95635  0.49034  0.36885  Biso   1.000  N 
  N4       1.0000 0.05353  0.48530  0.20211  Biso   1.000  N 
  N5       1.0000 0.55619  0.07178  0.69628  Biso   1.000  N 
  N6       1.0000 0.54530  0.10434  0.48405  Biso   1.000  N 
  N7       1.0000 0.45632  0.99021  0.36862  Biso   1.000  N 
  N8       1.0000 0.05622  0.57160  0.69659  Biso   1.000  N 
  N9       1.0000 0.15104  0.68114  0.63561  Biso   1.000  N 
  N10      1.0000 0.65054  0.18213  0.63619  Biso   1.000  N 
  N11      1.0000 0.04544  0.60425  0.48439  Biso   1.000  N 
  N12      1.0000 0.04196  0.45083  0.99564  Biso   1.000  N 
  N13      1.0000 0.36214  0.18320  0.92852  Biso   1.000  N 
  N14      1.0000 0.54200  0.95082  0.99520  Biso   1.000  N 
  N15      1.0000 0.55355  0.98530  0.20169  Biso   1.000  N 
  N16      1.0000 0.86240  0.37927  0.42900  Biso   1.000  N 
  N17      1.0000 0.97014  0.61148  0.07002  Biso   1.000  N 
  N18      1.0000 0.47013  0.11142  0.06974  Biso   1.000  N 
  N19      1.0000 0.36284  0.87833  0.42754  Biso   1.000  N 
  N20      1.0000 0.86212  0.68314  0.92864  Biso   1.000  N 
  N21      1.0000 0.64970  0.87830  0.13723  Biso   1.000  N 
  N22      1.0000 0.14975  0.37848  0.13688  Biso   1.000  N 
  N23      1.0000 0.45872  0.07700  0.86279  Biso   1.000  N 
  N24      1.0000 0.95875  0.57701  0.86315  Biso   1.000  N 
  O1       1.0000 0.16055  0.35845  0.71338  Biso   1.000  O 
  O2       1.0000 0.66188  0.20217  0.21234  Biso   1.000  O 
  O3       1.0000 0.16236  0.70084  0.21149  Biso   1.000  O 
  O4       1.0000 0.35156  0.85799  0.85131  Biso   1.000  O 
  O5       1.0000 0.85111  0.35913  0.85289  Biso   1.000  O 
  O6       1.0000 0.85128  0.70298  0.35224  Biso   1.000  O 
  O7       1.0000 0.66051  0.85827  0.71372  Biso   1.000  O 
  O8       1.0000 0.35134  0.20313  0.35210  Biso   1.000  O 
