data_image0
_cell_length_a       33.5781
_cell_length_b       6.84047
_cell_length_c       7.14013
_cell_angle_alpha    89.0244
_cell_angle_beta     91.4396
_cell_angle_gamma    92.1581

_symmetry_space_group_name_H-M    "P 1"
_symmetry_int_tables_number       1

loop_
  _symmetry_equiv_pos_as_xyz
  'x, y, z'

loop_
  _atom_site_label
  _atom_site_occupancy
  _atom_site_fract_x
  _atom_site_fract_y
  _atom_site_fract_z
  _atom_site_thermal_displace_type
  _atom_site_B_iso_or_equiv
  _atom_site_type_symbol
  C1       1.0000 0.29721  0.79071  0.58007  Biso   1.000  C 
  C2       1.0000 0.93034  0.35635  0.69268  Biso   1.000  C 
  C3       1.0000 0.58227  0.20436  0.37292  Biso   1.000  C 
  C4       1.0000 0.07705  0.29710  0.18685  Biso   1.000  C 
  C5       1.0000 0.57704  0.79462  0.18858  Biso   1.000  C 
  C6       1.0000 0.76885  0.32677  0.71444  Biso   1.000  C 
  C7       1.0000 0.22824  0.81655  0.66806  Biso   1.000  C 
  C8       1.0000 0.72833  0.31608  0.66847  Biso   1.000  C 
  C9       1.0000 0.21538  0.77118  0.48470  Biso   1.000  C 
  C10      1.0000 0.10521  0.30965  0.04531  Biso   1.000  C 
  C11      1.0000 0.58447  0.88190  0.89002  Biso   1.000  C 
  C12      1.0000 0.43028  0.85375  0.69432  Biso   1.000  C 
  C13      1.0000 0.43479  0.75941  0.39931  Biso   1.000  C 
  C14      1.0000 0.10443  0.79534  0.51749  Biso   1.000  C 
  C15      1.0000 0.24385  0.73549  0.35007  Biso   1.000  C 
  C16      1.0000 0.74378  0.23522  0.35024  Biso   1.000  C 
  C17      1.0000 0.28435  0.74563  0.39660  Biso   1.000  C 
  C18      1.0000 0.78430  0.24587  0.39615  Biso   1.000  C 
  C19      1.0000 0.79726  0.29131  0.57940  Biso   1.000  C 
  C20      1.0000 0.34021  0.81868  0.63623  Biso   1.000  C 
  C21      1.0000 0.84027  0.32004  0.63506  Biso   1.000  C 
  C22      1.0000 0.92800  0.67826  0.17485  Biso   1.000  C 
  C23      1.0000 0.42803  0.17628  0.17688  Biso   1.000  C 
  C24      1.0000 0.90737  0.75323  0.01791  Biso   1.000  C 
  C25      1.0000 0.40739  0.25097  0.01983  Biso   1.000  C 
  C26      1.0000 0.71537  0.27051  0.48532  Biso   1.000  C 
  C27      1.0000 0.90821  0.26792  0.54586  Biso   1.000  C 
  C28      1.0000 0.08227  0.70721  0.37061  Biso   1.000  C 
  C29      1.0000 0.40814  0.76567  0.54734  Biso   1.000  C 
  C30      1.0000 0.84094  0.83884  0.12013  Biso   1.000  C 
  C31      1.0000 0.34094  0.33702  0.12164  Biso   1.000  C 
  C32      1.0000 0.08454  0.38419  0.88828  Biso   1.000  C 
  C33      1.0000 0.57776  0.29909  0.66779  Biso   1.000  C 
  C34      1.0000 0.07781  0.80143  0.66570  Biso   1.000  C 
  C35      1.0000 0.24192  0.29100  0.84733  Biso   1.000  C 
  C36      1.0000 0.78241  0.82004  0.88569  Biso   1.000  C 
  C37      1.0000 0.28255  0.31974  0.88637  Biso   1.000  C 
  C38      1.0000 0.79739  0.81038  0.07098  Biso   1.000  C 
  C39      1.0000 0.60440  0.29292  0.51967  Biso   1.000  C 
  C40      1.0000 0.29740  0.30944  0.07186  Biso   1.000  C 
  C41      1.0000 0.77078  0.77177  0.21659  Biso   1.000  C 
  C42      1.0000 0.74176  0.79061  0.84732  Biso   1.000  C 
  C43      1.0000 0.93486  0.26163  0.39779  Biso   1.000  C 
  C44      1.0000 0.60517  0.80745  0.04698  Biso   1.000  C 
  C45      1.0000 0.27067  0.27092  0.21700  Biso   1.000  C 
  C46      1.0000 0.73015  0.74235  0.17820  Biso   1.000  C 
  C47      1.0000 0.23005  0.24222  0.17796  Biso   1.000  C 
  C48      1.0000 0.71516  0.75187  0.99291  Biso   1.000  C 
  C49      1.0000 0.21519  0.25239  0.99245  Biso   1.000  C 
  C50      1.0000 0.67161  0.72310  0.94395  Biso   1.000  C 
  C51      1.0000 0.17165  0.22440  0.94286  Biso   1.000  C 
  C52      1.0000 0.17238  0.74243  0.42884  Biso   1.000  C 
  C53      1.0000 0.67234  0.24104  0.43018  Biso   1.000  C 
  C54      1.0000 0.26873  0.82653  0.71468  Biso   1.000  C 
  C55      1.0000 0.43557  0.26374  0.87846  Biso   1.000  C 
  C56      1.0000 0.93556  0.76641  0.87657  Biso   1.000  C 
  Co1      1.0000 0.50724  0.05624  0.78299  Biso   1.000  Co
  Co2      1.0000 0.00731  0.55915  0.78090  Biso   1.000  Co
  Co3      1.0000 0.00533  0.50436  0.28217  Biso   1.000  Co
  Co4      1.0000 0.50530  0.00161  0.28432  Biso   1.000  Co
  H1       1.0000 0.80584  0.22078  0.28822  Biso   1.000  H 
  H2       1.0000 0.73346  0.19885  0.20875  Biso   1.000  H 
  H3       1.0000 0.23361  0.69929  0.20842  Biso   1.000  H 
  H4       1.0000 0.27896  0.86264  0.85639  Biso   1.000  H 
  H5       1.0000 0.70678  0.34110  0.77630  Biso   1.000  H 
  H6       1.0000 0.71009  0.70884  0.29315  Biso   1.000  H 
  H7       1.0000 0.20664  0.84190  0.77561  Biso   1.000  H 
  H8       1.0000 0.91751  0.64644  0.31486  Biso   1.000  H 
  H9       1.0000 0.41756  0.14477  0.31697  Biso   1.000  H 
  H10      1.0000 0.92994  0.20629  0.25715  Biso   1.000  H 
  H11      1.0000 0.15517  0.94363  0.62380  Biso   1.000  H 
  H12      1.0000 0.15884  0.37668  0.17660  Biso   1.000  H 
  H13      1.0000 0.65880  0.87498  0.17793  Biso   1.000  H 
  H14      1.0000 0.35376  0.18384  0.88844  Biso   1.000  H 
  H15      1.0000 0.85372  0.68546  0.88703  Biso   1.000  H 
  H16      1.0000 0.20990  0.20884  0.29256  Biso   1.000  H 
  H17      1.0000 0.09134  0.67616  0.23034  Biso   1.000  H 
  H18      1.0000 0.59137  0.17322  0.23276  Biso   1.000  H 
  H19      1.0000 0.58267  0.35438  0.80846  Biso   1.000  H 
  H20      1.0000 0.30595  0.72043  0.28901  Biso   1.000  H 
  H21      1.0000 0.30271  0.35317  0.77176  Biso   1.000  H 
  H22      1.0000 0.08069  0.24978  0.33202  Biso   1.000  H 
  H23      1.0000 0.65513  0.44188  0.62548  Biso   1.000  H 
  H24      1.0000 0.08275  0.85657  0.80641  Biso   1.000  H 
  H25      1.0000 0.23031  0.30007  0.70362  Biso   1.000  H 
  H26      1.0000 0.77915  0.36311  0.85597  Biso   1.000  H 
  H27      1.0000 0.28229  0.26191  0.36067  Biso   1.000  H 
  H28      1.0000 0.09497  0.41539  0.74809  Biso   1.000  H 
  H29      1.0000 0.93196  0.81422  0.73155  Biso   1.000  H 
  H30      1.0000 0.80247  0.85364  0.77075  Biso   1.000  H 
  H31      1.0000 0.43197  0.31131  0.73338  Biso   1.000  H 
  H32      1.0000 0.42117  0.88486  0.83448  Biso   1.000  H 
  H33      1.0000 0.73005  0.79915  0.70377  Biso   1.000  H 
  H34      1.0000 0.42988  0.70446  0.25853  Biso   1.000  H 
  H35      1.0000 0.35736  0.61827  0.44037  Biso   1.000  H 
  H36      1.0000 0.85748  0.11989  0.43911  Biso   1.000  H 
  H37      1.0000 0.78248  0.76331  0.36014  Biso   1.000  H 
  H38      1.0000 0.59490  0.91335  0.74986  Biso   1.000  H 
  H39      1.0000 0.92126  0.38747  0.83290  Biso   1.000  H 
  H40      1.0000 0.58069  0.74719  0.33368  Biso   1.000  H 
  N1       1.0000 0.64656  0.78763  0.07409  Biso   1.000  N 
  N2       1.0000 0.86721  0.22033  0.53740  Biso   1.000  N 
  N3       1.0000 0.96576  0.64291  0.12706  Biso   1.000  N 
  N4       1.0000 0.46578  0.14062  0.12910  Biso   1.000  N 
  N5       1.0000 0.36712  0.71863  0.53868  Biso   1.000  N 
  N6       1.0000 0.86599  0.77321  0.99055  Biso   1.000  N 
  N7       1.0000 0.97051  0.69698  0.94268  Biso   1.000  N 
  N8       1.0000 0.14658  0.28953  0.07261  Biso   1.000  N 
  N9       1.0000 0.54206  0.86384  0.12259  Biso   1.000  N 
  N10      1.0000 0.54674  0.91739  0.93805  Biso   1.000  N 
  N11      1.0000 0.36602  0.27119  0.99229  Biso   1.000  N 
  N12      1.0000 0.47052  0.19432  0.94462  Biso   1.000  N 
  N13      1.0000 0.64540  0.34081  0.52777  Biso   1.000  N 
  N14      1.0000 0.04681  0.42006  0.93619  Biso   1.000  N 
  N15      1.0000 0.04242  0.71530  0.61220  Biso   1.000  N 
  N16      1.0000 0.96734  0.40602  0.63316  Biso   1.000  N 
  N17      1.0000 0.97023  0.34802  0.45120  Biso   1.000  N 
  N18      1.0000 0.04211  0.36656  0.12072  Biso   1.000  N 
  N19      1.0000 0.47018  0.84545  0.45296  Biso   1.000  N 
  N20      1.0000 0.54527  0.15461  0.43240  Biso   1.000  N 
  N21      1.0000 0.54239  0.21263  0.61437  Biso   1.000  N 
  N22      1.0000 0.46729  0.90326  0.63497  Biso   1.000  N 
  N23      1.0000 0.14544  0.84282  0.52587  Biso   1.000  N 
  N24      1.0000 0.04527  0.65757  0.43013  Biso   1.000  N 
  O1       1.0000 0.16220  0.62669  0.30132  Biso   1.000  O 
  O2       1.0000 0.35043  0.93347  0.76450  Biso   1.000  O 
  O3       1.0000 0.85045  0.43509  0.76318  Biso   1.000  O 
  O4       1.0000 0.85276  0.91362  0.27091  Biso   1.000  O 
  O5       1.0000 0.65976  0.64900  0.79288  Biso   1.000  O 
  O6       1.0000 0.15984  0.15030  0.79174  Biso   1.000  O 
  O7       1.0000 0.66216  0.12518  0.30274  Biso   1.000  O 
  O8       1.0000 0.35273  0.41125  0.27272  Biso   1.000  O 
