data_Co_bdp-lp
_audit_creation_date              2022-11-25
_audit_creation_method            'Materials Studio'
_symmetry_space_group_name_H-M    'P1'
_symmetry_Int_Tables_number       1
_symmetry_cell_setting            triclinic
loop_
_symmetry_equiv_pos_as_xyz
  x,y,z
_cell_length_a                    21.7628
_cell_length_b                    15.2203
_cell_length_c                    6.9827
_cell_angle_alpha                 90.0000
_cell_angle_beta                  97.3670
_cell_angle_gamma                 90.0000
loop_
_atom_site_label
_atom_site_type_symbol
_atom_site_fract_x
_atom_site_fract_y
_atom_site_fract_z
_atom_site_U_iso_or_equiv
_atom_site_adp_type
_atom_site_occupancy
C2     C     0.39388   0.89219   0.14923   0.00481  Uiso   1.00
C3     C     0.40068   0.84519   0.85467   0.00481  Uiso   1.00
C4     C     0.36647   0.84032   0.00421   0.00481  Uiso   1.00
C5     C     0.30865   0.78709   0.00844   0.00481  Uiso   1.00
C6     C     0.21800   0.75400   0.15974   0.00481  Uiso   1.00
C7     C     0.27665   0.79110   0.16818   0.00481  Uiso   1.00
N8     N     0.44503   0.92912   0.08932   0.00481  Uiso   1.00
N9     N     0.44924   0.90007   0.90727   0.00481  Uiso   1.00
H10    H     0.37977   0.90108   0.27100   0.00481  Uiso   1.00
H11    H     0.39216   0.81547   0.73456   0.00481  Uiso   1.00
H12    H     0.19613   0.75674   0.26892   0.00481  Uiso   1.00
H13    H     0.29486   0.81919   0.28313   0.00481  Uiso   1.00
C15    C     0.89388   0.39219   0.14923   0.00481  Uiso   1.00
C16    C     0.90068   0.34519   0.85467   0.00481  Uiso   1.00
C17    C     0.86647   0.34032   0.00421   0.00481  Uiso   1.00
C18    C     0.80865   0.28709   0.00844   0.00481  Uiso   1.00
C19    C     0.71800   0.25400   0.15974   0.00481  Uiso   1.00
C20    C     0.77665   0.29110   0.16818   0.00481  Uiso   1.00
N21    N     0.94503   0.42912   0.08932   0.00481  Uiso   1.00
N22    N     0.94924   0.40007   0.90727   0.00481  Uiso   1.00
H23    H     0.87977   0.40108   0.27100   0.00481  Uiso   1.00
H24    H     0.89216   0.31547   0.73456   0.00481  Uiso   1.00
H25    H     0.69613   0.25674   0.26892   0.00481  Uiso   1.00
H26    H     0.79486   0.31919   0.28313   0.00481  Uiso   1.00
C28    C     0.60612   0.89219   0.35077   0.00481  Uiso   1.00
C29    C     0.59932   0.84519   0.64533   0.00481  Uiso   1.00
C30    C     0.63353   0.84032   0.49579   0.00481  Uiso   1.00
C31    C     0.69135   0.78709   0.49156   0.00481  Uiso   1.00
C32    C     0.78200   0.75400   0.34026   0.00481  Uiso   1.00
C33    C     0.72335   0.79110   0.33182   0.00481  Uiso   1.00
N34    N     0.55497   0.92912   0.41068   0.00481  Uiso   1.00
N35    N     0.55076   0.90007   0.59273   0.00481  Uiso   1.00
H36    H     0.62023   0.90108   0.22900   0.00481  Uiso   1.00
H37    H     0.60784   0.81547   0.76544   0.00481  Uiso   1.00
H38    H     0.80387   0.75674   0.23108   0.00481  Uiso   1.00
H39    H     0.70514   0.81919   0.21687   0.00481  Uiso   1.00
C41    C     0.10612   0.39219   0.35077   0.00481  Uiso   1.00
C42    C     0.09932   0.34519   0.64533   0.00481  Uiso   1.00
C43    C     0.13353   0.34032   0.49579   0.00481  Uiso   1.00
C44    C     0.19135   0.28709   0.49156   0.00481  Uiso   1.00
C45    C     0.28200   0.25400   0.34026   0.00481  Uiso   1.00
C46    C     0.22335   0.29110   0.33182   0.00481  Uiso   1.00
N47    N     0.05497   0.42912   0.41068   0.00481  Uiso   1.00
N48    N     0.05076   0.40007   0.59273   0.00481  Uiso   1.00
H49    H     0.12023   0.40108   0.22900   0.00481  Uiso   1.00
H50    H     0.10784   0.31547   0.76544   0.00481  Uiso   1.00
H51    H     0.30387   0.25674   0.23108   0.00481  Uiso   1.00
H52    H     0.20514   0.31919   0.21687   0.00481  Uiso   1.00
C54    C     0.60612   0.10781   0.85077   0.00481  Uiso   1.00
C55    C     0.59932   0.15481   0.14533   0.00481  Uiso   1.00
C56    C     0.63353   0.15968   0.99579   0.00481  Uiso   1.00
C57    C     0.69135   0.21291   0.99156   0.00481  Uiso   1.00
C58    C     0.78200   0.24600   0.84026   0.00481  Uiso   1.00
C59    C     0.72335   0.20890   0.83182   0.00481  Uiso   1.00
N60    N     0.55497   0.07088   0.91068   0.00481  Uiso   1.00
N61    N     0.55076   0.09993   0.09273   0.00481  Uiso   1.00
H62    H     0.62023   0.09892   0.72900   0.00481  Uiso   1.00
H63    H     0.60784   0.18453   0.26544   0.00481  Uiso   1.00
H64    H     0.80387   0.24326   0.73108   0.00481  Uiso   1.00
H65    H     0.70514   0.18081   0.71687   0.00481  Uiso   1.00
C67    C     0.10612   0.60781   0.85077   0.00481  Uiso   1.00
C68    C     0.09932   0.65481   0.14533   0.00481  Uiso   1.00
C69    C     0.13353   0.65968   0.99579   0.00481  Uiso   1.00
C70    C     0.19135   0.71291   0.99156   0.00481  Uiso   1.00
C71    C     0.28200   0.74600   0.84026   0.00481  Uiso   1.00
C72    C     0.22335   0.70890   0.83182   0.00481  Uiso   1.00
N73    N     0.05497   0.57088   0.91068   0.00481  Uiso   1.00
N74    N     0.05076   0.59993   0.09273   0.00481  Uiso   1.00
H75    H     0.12023   0.59892   0.72900   0.00481  Uiso   1.00
H76    H     0.10784   0.68453   0.26544   0.00481  Uiso   1.00
H77    H     0.30387   0.74326   0.73108   0.00481  Uiso   1.00
H78    H     0.20514   0.68081   0.71687   0.00481  Uiso   1.00
C80    C     0.39388   0.10781   0.64923   0.00481  Uiso   1.00
C81    C     0.40068   0.15481   0.35467   0.00481  Uiso   1.00
C82    C     0.36647   0.15968   0.50421   0.00481  Uiso   1.00
C83    C     0.30865   0.21291   0.50844   0.00481  Uiso   1.00
C84    C     0.21800   0.24600   0.65974   0.00481  Uiso   1.00
C85    C     0.27665   0.20890   0.66818   0.00481  Uiso   1.00
N86    N     0.44503   0.07088   0.58932   0.00481  Uiso   1.00
N87    N     0.44924   0.09993   0.40727   0.00481  Uiso   1.00
H88    H     0.37977   0.09892   0.77100   0.00481  Uiso   1.00
H89    H     0.39216   0.18453   0.23456   0.00481  Uiso   1.00
H90    H     0.19613   0.24326   0.76892   0.00481  Uiso   1.00
H91    H     0.29486   0.18081   0.78313   0.00481  Uiso   1.00
C93    C     0.89388   0.60781   0.64923   0.00481  Uiso   1.00
C94    C     0.90068   0.65481   0.35467   0.00481  Uiso   1.00
C95    C     0.86647   0.65968   0.50421   0.00481  Uiso   1.00
C96    C     0.80865   0.71291   0.50844   0.00481  Uiso   1.00
C97    C     0.71800   0.74600   0.65974   0.00481  Uiso   1.00
C98    C     0.77665   0.70890   0.66818   0.00481  Uiso   1.00
N99    N     0.94503   0.57088   0.58932   0.00481  Uiso   1.00
N100   N     0.94924   0.59993   0.40727   0.00481  Uiso   1.00
H101   H     0.87977   0.59892   0.77100   0.00481  Uiso   1.00
H102   H     0.89216   0.68453   0.23456   0.00481  Uiso   1.00
H103   H     0.69613   0.74326   0.76892   0.00481  Uiso   1.00
H104   H     0.79486   0.68081   0.78313   0.00481  Uiso   1.00
Co105  Co    0.00000   0.51922   0.25000   0.00481  Uiso   1.00
Co106  Co    0.50000   0.01922   0.25000   0.00481  Uiso   1.00
Co107  Co    0.00000   0.48078   0.75000   0.00481  Uiso   1.00
Co108  Co    0.50000   0.98078   0.75000   0.00481  Uiso   1.00
loop_
_geom_bond_atom_site_label_1
_geom_bond_atom_site_label_2
_geom_bond_distance
_geom_bond_site_symmetry_2
_ccdc_geom_bond_type
C2     C4      1.360   .     S
C2     N8      1.360   .     D
C2     H10     0.950   .     S
C3     N9      1.360   .     D
C3     H11     0.950   .     S
C3     C4      1.360   1_556 S
C4     C5      1.500   .     S
C4     C3      1.360   1_554 S
C5     C7      1.390   .     S
C5     C71     1.390   1_554 S
C6     C7      1.390   .     D
C6     H12     0.950   .     S
C6     C70     1.390   1_554 D
C7     H13     0.950   .     S
N8     N9      1.360   1_554 S
N8     Co106   2.056   1_565 D
N9     Co108   2.061   .     S
N9     N8      1.360   1_556 S
C15    C17     1.360   .     S
C15    N21     1.360   .     D
C15    H23     0.950   .     S
C16    N22     1.360   .     D
C16    H24     0.950   .     S
C16    C17     1.360   1_556 S
C17    C18     1.500   .     S
C17    C16     1.360   1_554 S
C18    C20     1.390   .     S
C18    C58     1.390   1_554 D
C19    C20     1.390   .     D
C19    H25     0.950   .     S
C19    C57     1.390   1_554 S
C20    H26     0.950   .     S
N21    N22     1.360   1_554 S
N21    Co105   2.056   1_655 S
N22    N21     1.360   1_556 S
N22    Co107   2.061   1_655 S
C28    C30     1.360   .     S
C28    N34     1.360   .     D
C28    H36     0.950   .     S
C29    C30     1.360   .     S
C29    N35     1.360   .     D
C29    H37     0.950   .     S
C30    C31     1.500   .     S
C31    C33     1.390   .     S
C31    C97     1.390   .     S
C32    C33     1.390   .     D
C32    H38     0.950   .     S
C32    C96     1.390   .     S
C33    H39     0.950   .     S
N34    N35     1.360   .     S
N34    Co106   2.056   1_565 S
N35    Co108   2.061   .     S
C41    C43     1.360   .     S
C41    N47     1.360   .     D
C41    H49     0.950   .     S
C42    C43     1.360   .     S
C42    N48     1.360   .     D
C42    H50     0.950   .     S
C43    C44     1.500   .     S
C44    C46     1.390   .     S
C44    C84     1.390   .     S
C45    C46     1.390   .     D
C45    H51     0.950   .     S
C45    C83     1.390   .     S
C46    H52     0.950   .     S
N47    N48     1.360   .     S
N47    Co105   2.056   .     S
N48    Co107   2.061   .     S
C54    C56     1.360   .     S
C54    N60     1.360   .     D
C54    H62     0.950   .     S
C55    N61     1.360   .     D
C55    H63     0.950   .     S
C55    C56     1.360   1_554 D
C56    C57     1.500   .     S
C56    C55     1.360   1_556 D
C57    C59     1.390   .     S
C57    C19     1.390   1_556 S
C58    C59     1.390   .     D
C58    H64     0.950   .     S
C58    C18     1.390   1_556 D
C59    H65     0.950   .     S
N60    N61     1.360   1_556 S
N60    Co108   2.056   1_545 S
N61    Co106   2.061   .     S
N61    N60     1.360   1_554 S
C67    C69     1.360   .     S
C67    N73     1.360   .     D
C67    H75     0.950   .     S
C68    N74     1.360   .     D
C68    H76     0.950   .     S
C68    C69     1.360   1_554 S
C69    C70     1.500   .     S
C69    C68     1.360   1_556 S
C70    C72     1.390   .     S
C70    C6      1.390   1_556 D
C71    C72     1.390   .     D
C71    H77     0.950   .     S
C71    C5      1.390   1_556 S
C72    H78     0.950   .     S
N73    Co107   2.056   .     S
N73    N74     1.360   1_556 S
N74    Co105   2.061   .     S
N74    N73     1.360   1_554 S
C80    C82     1.360   .     S
C80    N86     1.360   .     D
C80    H88     0.950   .     S
C81    C82     1.360   .     S
C81    N87     1.360   .     D
C81    H89     0.950   .     S
C82    C83     1.500   .     S
C83    C85     1.390   .     S
C84    C85     1.390   .     D
C84    H90     0.950   .     S
C85    H91     0.950   .     S
N86    N87     1.360   .     S
N86    Co108   2.056   1_545 S
N87    Co106   2.061   .     S
C93    C95     1.360   .     S
C93    N99     1.360   .     D
C93    H101    0.950   .     S
C94    C95     1.360   .     S
C94    N100    1.360   .     D
C94    H102    0.950   .     S
C95    C96     1.500   .     S
C96    C98     1.390   .     S
C97    C98     1.390   .     D
C97    H103    0.950   .     S
C98    H104    0.950   .     S
N99    N100    1.360   .     S
N99    Co107   2.056   1_655 S
N100   Co105   2.061   1_655 D
Co105  N21     2.056   1_455 S
Co105  N100    2.061   1_455 D
Co106  N8      2.056   1_545 D
Co106  N34     2.056   1_545 S
Co107  N22     2.061   1_455 S
Co107  N99     2.056   1_455 S
Co108  N60     2.056   1_565 S
Co108  N86     2.056   1_565 S
