data_MIL118
_audit_creation_date              2023-01-09
_audit_creation_method            'Materials Studio'
_symmetry_space_group_name_H-M    'P1'
_symmetry_Int_Tables_number       1
_symmetry_cell_setting            triclinic
loop_
_symmetry_equiv_pos_as_xyz
  x,y,z
_cell_length_a                    11.9352
_cell_length_b                    6.1618
_cell_length_c                    8.4203
_cell_angle_alpha                 89.9793
_cell_angle_beta                  89.9718
_cell_angle_gamma                 89.9688
loop_
_atom_site_label
_atom_site_type_symbol
_atom_site_fract_x
_atom_site_fract_y
_atom_site_fract_z
_atom_site_U_iso_or_equiv
_atom_site_adp_type
_atom_site_occupancy
O1     O     0.15315   0.14625   0.15253   0.01843  Uiso   1.00
O2     O     0.34427   0.28370   0.15633   0.01843  Uiso   1.00
C3     C     0.05731   0.96801   0.35718   0.01843  Uiso   1.00
C4     C     0.12362   0.96509   0.21091   0.01843  Uiso   1.00
O5     O     0.84850   0.84007   0.15321   0.01843  Uiso   1.00
O6     O     0.66087   0.70803   0.15918   0.01843  Uiso   1.00
C7     C     0.94296   0.02158   0.35745   0.01843  Uiso   1.00
C8     C     0.87620   0.02209   0.21176   0.01843  Uiso   1.00
O9     O     0.34709   0.64657   0.85026   0.01843  Uiso   1.00
O10    O     0.15660   0.78449   0.84780   0.01843  Uiso   1.00
C11    C     0.44318   0.46782   0.64617   0.01843  Uiso   1.00
C12    C     0.37659   0.46495   0.79197   0.01843  Uiso   1.00
O13    O     0.65147   0.33978   0.85098   0.01843  Uiso   1.00
O14    O     0.84099   0.20821   0.84509   0.01843  Uiso   1.00
C15    C     0.55735   0.52208   0.64652   0.01843  Uiso   1.00
C16    C     0.62366   0.52242   0.79263   0.01843  Uiso   1.00
O17    O     0.85160   0.84587   0.85430   0.01843  Uiso   1.00
O18    O     0.65776   0.70295   0.84810   0.01843  Uiso   1.00
C19    C     0.94359   0.02477   0.64668   0.01843  Uiso   1.00
C20    C     0.87730   0.02760   0.79282   0.01843  Uiso   1.00
O21    O     0.15342   0.14677   0.85143   0.01843  Uiso   1.00
O22    O     0.34403   0.28341   0.84743   0.01843  Uiso   1.00
C23    C     0.05770   0.96955   0.64650   0.01843  Uiso   1.00
C24    C     0.12409   0.96591   0.79257   0.01843  Uiso   1.00
O25    O     0.64977   0.34635   0.14940   0.01843  Uiso   1.00
O26    O     0.84185   0.20220   0.15642   0.01843  Uiso   1.00
C27    C     0.55755   0.52483   0.35721   0.01843  Uiso   1.00
C28    C     0.62421   0.52775   0.21125   0.01843  Uiso   1.00
O29    O     0.34749   0.64685   0.15260   0.01843  Uiso   1.00
O30    O     0.15623   0.78394   0.15540   0.01843  Uiso   1.00
C31    C     0.44350   0.46888   0.35705   0.01843  Uiso   1.00
C32    C     0.37704   0.46544   0.21118   0.01843  Uiso   1.00
Al33   Al    0.24927   0.21636   0.00208   0.01843  Uiso   1.00
O34    O     0.19051   0.46633   0.00204   0.01843  Uiso   1.00
Al35   Al    0.75361   0.77181   0.00143   0.01843  Uiso   1.00
O36    O     0.81035   0.51961   0.00138   0.01843  Uiso   1.00
Al37   Al    0.25121   0.71426   0.00171   0.01843  Uiso   1.00
O38    O     0.30967   0.96621   0.00199   0.01843  Uiso   1.00
Al39   Al    0.74755   0.27264   0.00184   0.01843  Uiso   1.00
O40    O     0.69102   0.01973   0.00145   0.01843  Uiso   1.00
C41    C     0.11386   0.94212   0.50174   0.01843  Uiso   1.00
C42    C     0.88698   0.05037   0.50217   0.01843  Uiso   1.00
C43    C     0.38707   0.44131   0.50151   0.01843  Uiso   1.00
C44    C     0.61370   0.55102   0.50204   0.01843  Uiso   1.00
H45    H     0.11809   0.46751   1.00203   0.00000  Uiso   1.00
H46    H     0.88275   0.51673   1.00153   0.00000  Uiso   1.00
H47    H     0.38209   0.96723   1.00194   0.00000  Uiso   1.00
H48    H     0.61862   0.01701   0.00169   0.00000  Uiso   1.00
H49    H     0.29786   0.40698   0.50135   0.00000  Uiso   1.00
H50    H     0.70291   0.58527   0.50227   0.00000  Uiso   1.00
H51    H     0.79770   0.08410   0.50240   0.00000  Uiso   1.00
H52    H     0.20311   0.90811   0.50158   0.00000  Uiso   1.00
loop_
_geom_bond_atom_site_label_1
_geom_bond_atom_site_label_2
_geom_bond_distance
_geom_bond_site_symmetry_2
_ccdc_geom_bond_type
O1     Al33    1.762   .     S
O1     C4      1.270   1_545 S
O2     Al33    1.774   .     S
O2     C32     1.273   .     S
C3     C4      1.464   .     S
C3     C41     1.401   .     D
C3     C7      1.404   1_465 S
C4     O30     1.271   .     D
C4     O1      1.270   1_565 S
O5     Al35    1.759   .     S
O5     C8      1.269   1_565 S
O6     Al35    1.773   .     S
O6     C28     1.272   .     D
C7     C8      1.463   .     S
C7     C42     1.401   .     D
C7     C3      1.404   1_645 S
C8     O26     1.271   .     D
C8     O5      1.269   1_545 S
O9     C12     1.272   .     D
O9     Al37    1.763   1_556 S
O10    C24     1.271   .     S
O10    Al37    1.773   1_556 S
C11    C12     1.462   .     S
C11    C43     1.400   .     D
C11    C15     1.403   .     S
C12    O22     1.273   .     S
O13    C16     1.272   .     D
O13    Al39    1.761   1_556 S
O14    C20     1.273   .     D
O14    Al39    1.773   1_556 S
C15    C16     1.463   .     S
C15    C44     1.401   .     D
C16    O18     1.274   .     S
O17    C20     1.271   1_565 S
O17    Al35    1.763   1_556 S
O18    Al35    1.777   1_556 S
C19    C20     1.463   .     S
C19    C42     1.401   .     S
C19    C23     1.404   1_645 D
C20    O17     1.271   1_545 S
O21    C24     1.269   1_545 D
O21    Al33    1.762   1_556 S
O22    Al33    1.773   1_556 S
C23    C24     1.464   .     S
C23    C41     1.401   .     S
C23    C19     1.404   1_465 D
C24    O21     1.269   1_565 D
O25    C28     1.270   .     S
O25    Al39    1.764   .     S
O26    Al39    1.775   .     S
C27    C28     1.464   .     S
C27    C44     1.401   .     S
C27    C31     1.404   .     D
O29    C32     1.271   .     D
O29    Al37    1.763   .     S
O30    Al37    1.773   .     S
C31    C32     1.463   .     S
C31    C43     1.400   .     S
Al33   O34     1.692   .     S
Al33   O21     1.762   1_554 S
Al33   O22     1.773   1_554 S
Al33   O38     1.701   1_545 S
O34    Al37    1.691   .     S
O34    H45     0.864   1_554 S
Al35   O36     1.695   .     S
Al35   O17     1.763   1_554 S
Al35   O18     1.777   1_554 S
Al35   O40     1.700   1_565 S
O36    Al39    1.697   .     S
O36    H46     0.864   1_554 S
Al37   O38     1.702   .     S
Al37   O9      1.763   1_554 S
Al37   O10     1.773   1_554 S
O38    Al33    1.701   1_565 S
O38    H47     0.864   1_554 S
Al39   O40     1.699   .     S
Al39   O13     1.761   1_554 S
Al39   O14     1.773   1_554 S
O40    H48     0.864   .     S
O40    Al35    1.700   1_545 S
C41    H52     1.086   .     S
C42    H51     1.086   .     S
C43    H49     1.086   .     S
C44    H50     1.086   .     S
H45    O34     0.864   1_556 S
H46    O36     0.864   1_556 S
H47    O38     0.864   1_556 S
