data_MIL53_Al
_audit_creation_date              2023-01-10
_audit_creation_method            'Materials Studio'
_symmetry_space_group_name_H-M    'P1'
_symmetry_Int_Tables_number       1
_symmetry_cell_setting            triclinic
loop_
_symmetry_equiv_pos_as_xyz
  x,y,z
_cell_length_a                    17.0190
_cell_length_b                    6.5844
_cell_length_c                    12.2620
_cell_angle_alpha                 90.0000
_cell_angle_beta                  90.0000
_cell_angle_gamma                 90.0000
loop_
_atom_site_label
_atom_site_type_symbol
_atom_site_fract_x
_atom_site_fract_y
_atom_site_fract_z
_atom_site_U_iso_or_equiv
_atom_site_adp_type
_atom_site_occupancy
O1     O     0.07230   0.92010   0.89083   0.01267  Uiso   1.00
O2     O     0.41325   0.92020   0.58606   0.01267  Uiso   1.00
C1     C     0.27391   0.93170   0.70130   0.01267  Uiso   1.00
H1     H     0.29660   0.05400   0.68000   0.01267  Uiso   1.00
C2     C     0.20527   0.93180   0.76200   0.01267  Uiso   1.00
H2     H     0.18230   0.05410   0.78250   0.01267  Uiso   1.00
O3     O     0.42770   0.07990   0.39083   0.01267  Uiso   1.00
O4     O     0.08675   0.07980   0.08606   0.01267  Uiso   1.00
C3     C     0.22609   0.06830   0.20130   0.01267  Uiso   1.00
H3     H     0.20340   0.94600   0.18000   0.01267  Uiso   1.00
C4     C     0.29473   0.06820   0.26200   0.01267  Uiso   1.00
H4     H     0.31770   0.94590   0.28250   0.01267  Uiso   1.00
O5     O     0.92770   0.42010   0.10917   0.01267  Uiso   1.00
O6     O     0.58675   0.42020   0.41394   0.01267  Uiso   1.00
C5     C     0.72609   0.43170   0.29870   0.01267  Uiso   1.00
H5     H     0.70340   0.55400   0.32000   0.01267  Uiso   1.00
C6     C     0.79473   0.43180   0.23800   0.01267  Uiso   1.00
H6     H     0.81770   0.55410   0.21750   0.01267  Uiso   1.00
O7     O     0.57230   0.57990   0.60917   0.01267  Uiso   1.00
O8     O     0.91325   0.57980   0.91394   0.01267  Uiso   1.00
C7     C     0.77391   0.56830   0.79870   0.01267  Uiso   1.00
H7     H     0.79660   0.44600   0.82000   0.01267  Uiso   1.00
C8     C     0.70527   0.56820   0.73800   0.01267  Uiso   1.00
H8     H     0.68230   0.44590   0.71750   0.01267  Uiso   1.00
O9     O     0.92770   0.07990   0.10917   0.01267  Uiso   1.00
O10    O     0.58675   0.07980   0.41394   0.01267  Uiso   1.00
C9     C     0.72609   0.06830   0.29870   0.01267  Uiso   1.00
H9     H     0.70340   0.94600   0.32000   0.01267  Uiso   1.00
C10    C     0.79473   0.06820   0.23800   0.01267  Uiso   1.00
H10    H     0.81770   0.94590   0.21750   0.01267  Uiso   1.00
O11    O     0.57230   0.92010   0.60917   0.01267  Uiso   1.00
O12    O     0.91325   0.92020   0.91394   0.01267  Uiso   1.00
C11    C     0.77391   0.93170   0.79870   0.01267  Uiso   1.00
H11    H     0.79660   0.05400   0.82000   0.01267  Uiso   1.00
C12    C     0.70527   0.93180   0.73800   0.01267  Uiso   1.00
H12    H     0.68230   0.05410   0.71750   0.01267  Uiso   1.00
O13    O     0.07230   0.57990   0.89083   0.01267  Uiso   1.00
O14    O     0.41325   0.57980   0.58606   0.01267  Uiso   1.00
C13    C     0.27391   0.56830   0.70130   0.01267  Uiso   1.00
H13    H     0.29660   0.44600   0.68000   0.01267  Uiso   1.00
C14    C     0.20527   0.56820   0.76200   0.01267  Uiso   1.00
H14    H     0.18230   0.44590   0.78250   0.01267  Uiso   1.00
O15    O     0.42770   0.42010   0.39083   0.01267  Uiso   1.00
O16    O     0.08675   0.42020   0.08606   0.01267  Uiso   1.00
C15    C     0.22609   0.43170   0.20130   0.01267  Uiso   1.00
H15    H     0.20340   0.55400   0.18000   0.01267  Uiso   1.00
C16    C     0.29473   0.43180   0.26200   0.01267  Uiso   1.00
H16    H     0.31770   0.55410   0.28250   0.01267  Uiso   1.00
Al1    Al    0.00000   0.00000   0.00000   0.01267  Uiso   1.00
Al2    Al    0.50000   0.00000   0.50000   0.01267  Uiso   1.00
Al3    Al    0.00000   0.50000   0.00000   0.01267  Uiso   1.00
Al4    Al    0.50000   0.50000   0.50000   0.01267  Uiso   1.00
O17    O     0.00511   0.75000   0.06418   0.01267  Uiso   1.00
H17    H     0.01700   0.75000   0.12840   0.01267  Uiso   1.00
C17    C     0.38409   0.75000   0.60990   0.01267  Uiso   1.00
C18    C     0.30865   0.75000   0.67230   0.01267  Uiso   1.00
C19    C     0.09934   0.75000   0.86290   0.01267  Uiso   1.00
C20    C     0.17087   0.75000   0.79230   0.01267  Uiso   1.00
O18    O     0.49489   0.25000   0.56418   0.01267  Uiso   1.00
H18    H     0.48300   0.25000   0.62840   0.01267  Uiso   1.00
C21    C     0.11591   0.25000   0.10990   0.01267  Uiso   1.00
C22    C     0.19135   0.25000   0.17230   0.01267  Uiso   1.00
C23    C     0.40066   0.25000   0.36290   0.01267  Uiso   1.00
C24    C     0.32913   0.25000   0.29230   0.01267  Uiso   1.00
O19    O     0.99489   0.25000   0.93582   0.01267  Uiso   1.00
H19    H     0.98300   0.25000   0.87160   0.01267  Uiso   1.00
C25    C     0.61591   0.25000   0.39010   0.01267  Uiso   1.00
C26    C     0.69135   0.25000   0.32770   0.01267  Uiso   1.00
C27    C     0.90066   0.25000   0.13710   0.01267  Uiso   1.00
C28    C     0.82913   0.25000   0.20770   0.01267  Uiso   1.00
O20    O     0.50511   0.75000   0.43582   0.01267  Uiso   1.00
H20    H     0.51700   0.75000   0.37160   0.01267  Uiso   1.00
C29    C     0.88409   0.75000   0.89010   0.01267  Uiso   1.00
C30    C     0.80865   0.75000   0.82770   0.01267  Uiso   1.00
C31    C     0.59934   0.75000   0.63710   0.01267  Uiso   1.00
C32    C     0.67087   0.75000   0.70770   0.01267  Uiso   1.00
loop_
_geom_bond_atom_site_label_1
_geom_bond_atom_site_label_2
_geom_bond_distance
_geom_bond_site_symmetry_2
_ccdc_geom_bond_type
O1     C19     1.258   .     A
O1     Al1     1.893   1_566 S
O2     C17     1.260   .     A
O2     Al2     1.889   1_565 S
C1     C2      1.385   .     A
C1     C18     1.381   .     A
C1     H1      0.930   1_565 S
H1     C1      0.930   1_545 S
C2     C20     1.383   .     A
C2     H2      0.930   1_565 S
H2     C2      0.930   1_545 S
O3     Al2     1.893   .     S
O3     C23     1.258   .     A
O4     Al1     1.889   .     S
O4     C21     1.260   .     A
C3     C4      1.385   .     A
C3     C22     1.381   .     A
C3     H3      0.930   1_545 S
H3     C3      0.930   1_565 S
C4     C24     1.383   .     A
C4     H4      0.930   1_545 S
H4     C4      0.930   1_565 S
O5     C27     1.258   .     A
O5     Al3     1.893   1_655 S
O6     Al4     1.889   .     S
O6     C25     1.260   .     A
C5     H5      0.930   .     S
C5     C6      1.385   .     A
C5     C26     1.381   .     A
C6     H6      0.930   .     S
C6     C28     1.383   .     A
O7     Al4     1.893   .     S
O7     C31     1.258   .     A
O8     C29     1.260   .     A
O8     Al3     1.889   1_656 S
C7     H7      0.930   .     S
C7     C8      1.385   .     A
C7     C30     1.381   .     A
C8     H8      0.930   .     S
C8     C32     1.383   .     A
O9     C27     1.258   .     A
O9     Al1     1.893   1_655 S
O10    Al2     1.889   .     S
O10    C25     1.260   .     A
C9     C10     1.385   .     A
C9     C26     1.381   .     A
C9     H9      0.930   1_545 S
H9     C9      0.930   1_565 S
C10    C28     1.383   .     A
C10    H10     0.930   1_545 S
H10    C10     0.930   1_565 S
O11    C31     1.258   .     A
O11    Al2     1.893   1_565 S
O12    C29     1.260   .     A
O12    Al1     1.889   1_666 S
C11    C12     1.385   .     A
C11    C30     1.381   .     A
C11    H11     0.930   1_565 S
H11    C11     0.930   1_545 S
C12    C32     1.383   .     A
C12    H12     0.930   1_565 S
H12    C12     0.930   1_545 S
O13    C19     1.258   .     A
O13    Al3     1.893   1_556 S
O14    Al4     1.889   .     S
O14    C17     1.260   .     A
C13    H13     0.930   .     S
C13    C14     1.385   .     A
C13    C18     1.381   .     A
C14    H14     0.930   .     S
C14    C20     1.383   .     A
O15    Al4     1.893   .     S
O15    C23     1.258   .     A
O16    Al3     1.889   .     S
O16    C21     1.260   .     A
C15    H15     0.930   .     S
C15    C16     1.385   .     A
C15    C22     1.381   .     A
C16    H16     0.930   .     S
C16    C24     1.383   .     A
Al1    O1      1.893   1_544 S
Al1    O9      1.893   1_455 S
Al1    O12     1.889   1_444 S
Al1    O17     1.827   1_545 S
Al1    O19     1.827   1_454 S
Al2    O18     1.827   .     S
Al2    O2      1.889   1_545 S
Al2    O11     1.893   1_545 S
Al2    O20     1.827   1_545 S
Al3    O17     1.827   .     S
Al3    O5      1.893   1_455 S
Al3    O8      1.889   1_454 S
Al3    O13     1.893   1_554 S
Al3    O19     1.827   1_454 S
Al4    O18     1.827   .     S
Al4    O20     1.827   .     S
O17    H17     0.813   .     S
O17    Al1     1.827   1_565 S
C17    C18     1.495   .     S
C19    C20     1.494   .     S
O18    H18     0.813   .     S
C21    C22     1.495   .     S
C23    C24     1.494   .     S
O19    H19     0.813   .     S
O19    Al1     1.827   1_656 S
O19    Al3     1.827   1_656 S
C25    C26     1.495   .     S
C27    C28     1.494   .     S
O20    H20     0.813   .     S
O20    Al2     1.827   1_565 S
C29    C30     1.495   .     S
C31    C32     1.494   .     S
