data_image0
_cell_length_a       28.9878
_cell_length_b       8.99662
_cell_length_c       6.8636
_cell_angle_alpha    96.0395
_cell_angle_beta     89.0618
_cell_angle_gamma    91.3672

_symmetry_space_group_name_H-M    "P 1"
_symmetry_int_tables_number       1

loop_
  _symmetry_equiv_pos_as_xyz
  'x, y, z'

loop_
  _atom_site_label
  _atom_site_occupancy
  _atom_site_fract_x
  _atom_site_fract_y
  _atom_site_fract_z
  _atom_site_thermal_displace_type
  _atom_site_B_iso_or_equiv
  _atom_site_type_symbol
  C1       1.0000 0.32889  0.65952  0.28085  Biso   1.000  C 
  C2       1.0000 0.39458  0.81130  0.44178  Biso   1.000  C 
  C3       1.0000 0.41687  0.89521  0.59899  Biso   1.000  C 
  C4       1.0000 0.20094  0.37905  0.72685  Biso   1.000  C 
  C5       1.0000 0.18556  0.88222  0.61603  Biso   1.000  C 
  C6       1.0000 0.12329  0.34871  0.88432  Biso   1.000  C 
  C7       1.0000 0.62327  0.84869  0.88493  Biso   1.000  C 
  C8       1.0000 0.09760  0.42133  0.75161  Biso   1.000  C 
  C9       1.0000 0.59757  0.92125  0.75221  Biso   1.000  C 
  C10      1.0000 0.68566  0.38205  0.61644  Biso   1.000  C 
  C11      1.0000 0.16905  0.76959  0.47041  Biso   1.000  C 
  C12      1.0000 0.66911  0.26953  0.47081  Biso   1.000  C 
  C13      1.0000 0.20113  0.68915  0.35135  Biso   1.000  C 
  C14      1.0000 0.70114  0.18909  0.35149  Biso   1.000  C 
  C15      1.0000 0.59119  0.82737  0.03655  Biso   1.000  C 
  C16      1.0000 0.23211  0.90955  0.64172  Biso   1.000  C 
  C17      1.0000 0.24915  0.71499  0.37360  Biso   1.000  C 
  C18      1.0000 0.73222  0.40926  0.64197  Biso   1.000  C 
  C19      1.0000 0.26528  0.82683  0.52310  Biso   1.000  C 
  C20      1.0000 0.39098  0.19209  0.01284  Biso   1.000  C 
  C21      1.0000 0.31330  0.85269  0.54538  Biso   1.000  C 
  C22      1.0000 0.42313  0.21399  0.86166  Biso   1.000  C 
  C23      1.0000 0.92312  0.71355  0.86100  Biso   1.000  C 
  C24      1.0000 0.74917  0.21483  0.37355  Biso   1.000  C 
  C25      1.0000 0.89098  0.69155  0.01216  Biso   1.000  C 
  C26      1.0000 0.41668  0.11965  0.14565  Biso   1.000  C 
  C27      1.0000 0.91669  0.61906  0.14488  Biso   1.000  C 
  C28      1.0000 0.28233  0.63223  0.25505  Biso   1.000  C 
  C29      1.0000 0.81336  0.35229  0.54525  Biso   1.000  C 
  C30      1.0000 0.82888  0.15925  0.28046  Biso   1.000  C 
  C31      1.0000 0.09118  0.32711  0.03569  Biso   1.000  C 
  C32      1.0000 0.24328  0.24132  0.02432  Biso   1.000  C 
  C33      1.0000 0.78231  0.13211  0.25477  Biso   1.000  C 
  C34      1.0000 0.76609  0.67231  0.17214  Biso   1.000  C 
  C35      1.0000 0.76534  0.32653  0.52312  Biso   1.000  C 
  C36      1.0000 0.91691  0.39482  0.59843  Biso   1.000  C 
  C37      1.0000 0.26607  0.17299  0.17255  Biso   1.000  C 
  C38      1.0000 0.08550  0.74567  0.60289  Biso   1.000  C 
  C39      1.0000 0.31331  0.16154  0.17022  Biso   1.000  C 
  C40      1.0000 0.84129  0.71699  0.01917  Biso   1.000  C 
  C41      1.0000 0.34130  0.21756  0.01976  Biso   1.000  C 
  C42      1.0000 0.81945  0.78592  0.87475  Biso   1.000  C 
  C43      1.0000 0.61991  0.23044  0.45597  Biso   1.000  C 
  C44      1.0000 0.11986  0.73036  0.45537  Biso   1.000  C 
  C45      1.0000 0.59751  0.14678  0.29888  Biso   1.000  C 
  C46      1.0000 0.09751  0.64648  0.29828  Biso   1.000  C 
  C47      1.0000 0.31949  0.28637  0.87516  Biso   1.000  C 
  C48      1.0000 0.74811  0.86734  0.72454  Biso   1.000  C 
  C49      1.0000 0.81334  0.66083  0.16960  Biso   1.000  C 
  C50      1.0000 0.77093  0.79891  0.87262  Biso   1.000  C 
  C51      1.0000 0.58560  0.24566  0.60372  Biso   1.000  C 
  C52      1.0000 0.74328  0.74080  0.02413  Biso   1.000  C 
  C53      1.0000 0.17296  0.32304  0.87734  Biso   1.000  C 
  C54      1.0000 0.69475  0.75380  0.02202  Biso   1.000  C 
  C55      1.0000 0.19476  0.25424  0.02197  Biso   1.000  C 
  C56      1.0000 0.67293  0.82281  0.87764  Biso   1.000  C 
  C57      1.0000 0.27096  0.29934  0.87281  Biso   1.000  C 
  C58      1.0000 0.70088  0.87889  0.72710  Biso   1.000  C 
  C59      1.0000 0.92899  0.29536  0.29395  Biso   1.000  C 
  C60      1.0000 0.42899  0.79586  0.29450  Biso   1.000  C 
  C61      1.0000 0.24818  0.36761  0.72454  Biso   1.000  C 
  C62      1.0000 0.34539  0.77215  0.42647  Biso   1.000  C 
  C63      1.0000 0.84541  0.27177  0.42614  Biso   1.000  C 
  C64      1.0000 0.89461  0.31084  0.44132  Biso   1.000  C 
  Co1      1.0000 0.50617  0.05328  0.70282  Biso   1.000  Co
  Co2      1.0000 0.00825  0.48804  0.19466  Biso   1.000  Co
  Co3      1.0000 0.50824  0.98850  0.19556  Biso   1.000  Co
  Co4      1.0000 0.00616  0.55302  0.70186  Biso   1.000  Co
  H1       1.0000 0.68470  0.93517  0.61365  Biso   1.000  H 
  H2       1.0000 0.17456  0.20986  0.13940  Biso   1.000  H 
  H3       1.0000 0.32946  0.10535  0.28381  Biso   1.000  H 
  H4       1.0000 0.42689  0.74382  0.14468  Biso   1.000  H 
  H5       1.0000 0.92688  0.24326  0.14415  Biso   1.000  H 
  H6       1.0000 0.11059  0.61077  0.15218  Biso   1.000  H 
  H7       1.0000 0.61054  0.11115  0.15267  Biso   1.000  H 
  H8       1.0000 0.08765  0.79773  0.75267  Biso   1.000  H 
  H9       1.0000 0.18478  0.43519  0.61322  Biso   1.000  H 
  H10      1.0000 0.90615  0.58063  0.28385  Biso   1.000  H 
  H11      1.0000 0.26871  0.41264  0.60857  Biso   1.000  H 
  H12      1.0000 0.76863  0.91242  0.60855  Biso   1.000  H 
  H13      1.0000 0.33969  0.33074  0.75774  Biso   1.000  H 
  H14      1.0000 0.83963  0.83039  0.75735  Biso   1.000  H 
  H15      1.0000 0.24553  0.12793  0.28847  Biso   1.000  H 
  H16      1.0000 0.58783  0.29754  0.75357  Biso   1.000  H 
  H17      1.0000 0.74558  0.62717  0.28804  Biso   1.000  H 
  H18      1.0000 0.09578  0.27874  0.17232  Biso   1.000  H 
  H19      1.0000 0.40374  0.93106  0.74496  Biso   1.000  H 
  H20      1.0000 0.67457  0.70934  0.13945  Biso   1.000  H 
  H21      1.0000 0.82495  0.44097  0.65582  Biso   1.000  H 
  H22      1.0000 0.85355  0.09340  0.18798  Biso   1.000  H 
  H23      1.0000 0.77032  0.04606  0.14187  Biso   1.000  H 
  H24      1.0000 0.16086  0.94793  0.70853  Biso   1.000  H 
  H25      1.0000 0.40615  0.08130  0.28467  Biso   1.000  H 
  H26      1.0000 0.91850  0.76195  0.72440  Biso   1.000  H 
  H27      1.0000 0.41852  0.26233  0.72501  Biso   1.000  H 
  H28      1.0000 0.60805  0.95928  0.61296  Biso   1.000  H 
  H29      1.0000 0.10811  0.45957  0.61251  Biso   1.000  H 
  H30      1.0000 0.59582  0.77914  0.17326  Biso   1.000  H 
  H31      1.0000 0.90380  0.43072  0.74443  Biso   1.000  H 
  H32      1.0000 0.32486  0.94146  0.65592  Biso   1.000  H 
  H33      1.0000 0.82950  0.60449  0.28301  Biso   1.000  H 
  H34      1.0000 0.24406  0.99559  0.75470  Biso   1.000  H 
  H35      1.0000 0.74423  0.49523  0.75494  Biso   1.000  H 
  H36      1.0000 0.18957  0.60038  0.24080  Biso   1.000  H 
  H37      1.0000 0.68954  0.10040  0.24091  Biso   1.000  H 
  H38      1.0000 0.27037  0.54610  0.14220  Biso   1.000  H 
  H39      1.0000 0.35358  0.59365  0.18854  Biso   1.000  H 
  H40      1.0000 0.66100  0.44777  0.70912  Biso   1.000  H 
  N1       1.0000 0.05021  0.38605  0.99796  Biso   1.000  N 
  N2       1.0000 0.05429  0.44423  0.82148  Biso   1.000  N 
  N3       1.0000 0.96004  0.59654  0.07520  Biso   1.000  N 
  N4       1.0000 0.46004  0.09706  0.07602  Biso   1.000  N 
  N5       1.0000 0.55428  0.94442  0.82232  Biso   1.000  N 
  N6       1.0000 0.55385  0.11155  0.35170  Biso   1.000  N 
  N7       1.0000 0.96412  0.65488  0.89881  Biso   1.000  N 
  N8       1.0000 0.96819  0.36881  0.35674  Biso   1.000  N 
  N9       1.0000 0.46056  0.93046  0.54657  Biso   1.000  N 
  N10      1.0000 0.96059  0.43004  0.54584  Biso   1.000  N 
  N11      1.0000 0.54636  0.17245  0.54107  Biso   1.000  N 
  N12      1.0000 0.04630  0.67227  0.54014  Biso   1.000  N 
  N13      1.0000 0.05384  0.61117  0.35092  Biso   1.000  N 
  N14      1.0000 0.46413  0.15529  0.89955  Biso   1.000  N 
  N15      1.0000 0.46817  0.86926  0.35744  Biso   1.000  N 
  N16      1.0000 0.55023  0.88647  0.99894  Biso   1.000  N 
