data_image0
_cell_length_a       29.0978
_cell_length_b       8.09846
_cell_length_c       6.89043
_cell_angle_alpha    91.5301
_cell_angle_beta     87.5653
_cell_angle_gamma    91.5341

_symmetry_space_group_name_H-M    "P 1"
_symmetry_int_tables_number       1

loop_
  _symmetry_equiv_pos_as_xyz
  'x, y, z'

loop_
  _atom_site_label
  _atom_site_occupancy
  _atom_site_fract_x
  _atom_site_fract_y
  _atom_site_fract_z
  _atom_site_thermal_displace_type
  _atom_site_B_iso_or_equiv
  _atom_site_type_symbol
  C1       1.0000 0.32920  0.65524  0.28320  Biso   1.000  C 
  C2       1.0000 0.76485  0.31948  0.52977  Biso   1.000  C 
  C3       1.0000 0.91566  0.38212  0.60958  Biso   1.000  C 
  C4       1.0000 0.26720  0.16788  0.18272  Biso   1.000  C 
  C5       1.0000 0.08461  0.76588  0.58125  Biso   1.000  C 
  C6       1.0000 0.31445  0.16418  0.17801  Biso   1.000  C 
  C7       1.0000 0.84171  0.72860  0.01893  Biso   1.000  C 
  C8       1.0000 0.34173  0.22902  0.01900  Biso   1.000  C 
  C9       1.0000 0.81921  0.79939  0.86882  Biso   1.000  C 
  C10      1.0000 0.62017  0.24831  0.43805  Biso   1.000  C 
  C11      1.0000 0.12015  0.74832  0.43767  Biso   1.000  C 
  C12      1.0000 0.59874  0.15879  0.28731  Biso   1.000  C 
  C13      1.0000 0.09874  0.65868  0.28698  Biso   1.000  C 
  C14      1.0000 0.31923  0.29962  0.86874  Biso   1.000  C 
  C15      1.0000 0.74718  0.87329  0.71481  Biso   1.000  C 
  C16      1.0000 0.81444  0.66364  0.17791  Biso   1.000  C 
  C17      1.0000 0.77065  0.80430  0.86893  Biso   1.000  C 
  C18      1.0000 0.58464  0.26592  0.58166  Biso   1.000  C 
  C19      1.0000 0.74369  0.73651  0.02871  Biso   1.000  C 
  C20      1.0000 0.17267  0.31224  0.87815  Biso   1.000  C 
  C21      1.0000 0.69513  0.74151  0.02872  Biso   1.000  C 
  C22      1.0000 0.19515  0.24163  0.02846  Biso   1.000  C 
  C23      1.0000 0.67265  0.81222  0.87850  Biso   1.000  C 
  C24      1.0000 0.27068  0.30447  0.86875  Biso   1.000  C 
  C25      1.0000 0.69993  0.87708  0.71952  Biso   1.000  C 
  C26      1.0000 0.92975  0.27494  0.31526  Biso   1.000  C 
  C27      1.0000 0.42972  0.77535  0.31568  Biso   1.000  C 
  C28      1.0000 0.24721  0.37332  0.71454  Biso   1.000  C 
  C29      1.0000 0.84502  0.25664  0.43990  Biso   1.000  C 
  C30      1.0000 0.89422  0.29247  0.45893  Biso   1.000  C 
  C31      1.0000 0.76719  0.66748  0.18276  Biso   1.000  C 
  C32      1.0000 0.78308  0.13868  0.24719  Biso   1.000  C 
  C33      1.0000 0.34500  0.75705  0.44015  Biso   1.000  C 
  C34      1.0000 0.09143  0.31240  0.04660  Biso   1.000  C 
  C35      1.0000 0.24372  0.23673  0.02853  Biso   1.000  C 
  C36      1.0000 0.39419  0.79294  0.45930  Biso   1.000  C 
  C37      1.0000 0.41561  0.88265  0.60993  Biso   1.000  C 
  C38      1.0000 0.18514  0.88588  0.61389  Biso   1.000  C 
  C39      1.0000 0.12286  0.33377  0.88738  Biso   1.000  C 
  C40      1.0000 0.62283  0.83380  0.88778  Biso   1.000  C 
  C41      1.0000 0.09636  0.40723  0.74853  Biso   1.000  C 
  C42      1.0000 0.59633  0.90722  0.74892  Biso   1.000  C 
  C43      1.0000 0.68520  0.38559  0.61428  Biso   1.000  C 
  C44      1.0000 0.16934  0.78410  0.45692  Biso   1.000  C 
  C45      1.0000 0.66937  0.28398  0.45724  Biso   1.000  C 
  C46      1.0000 0.20192  0.70577  0.33528  Biso   1.000  C 
  C47      1.0000 0.70192  0.20571  0.33540  Biso   1.000  C 
  C48      1.0000 0.59140  0.81253  0.04703  Biso   1.000  C 
  C49      1.0000 0.19996  0.37705  0.71916  Biso   1.000  C 
  C50      1.0000 0.24954  0.72123  0.36745  Biso   1.000  C 
  C51      1.0000 0.23122  0.90221  0.64977  Biso   1.000  C 
  C52      1.0000 0.81247  0.33486  0.56177  Biso   1.000  C 
  C53      1.0000 0.82918  0.15496  0.28292  Biso   1.000  C 
  C54      1.0000 0.91808  0.63398  0.14831  Biso   1.000  C 
  C55      1.0000 0.41807  0.13428  0.14850  Biso   1.000  C 
  C56      1.0000 0.89152  0.70712  0.00946  Biso   1.000  C 
  C57      1.0000 0.28311  0.63884  0.24737  Biso   1.000  C 
  C58      1.0000 0.92288  0.72823  0.84998  Biso   1.000  C 
  C59      1.0000 0.42293  0.22871  0.85025  Biso   1.000  C 
  C60      1.0000 0.31242  0.83530  0.56187  Biso   1.000  C 
  C61      1.0000 0.73130  0.40185  0.65002  Biso   1.000  C 
  C62      1.0000 0.39154  0.20755  0.00963  Biso   1.000  C 
  C63      1.0000 0.26480  0.81979  0.52974  Biso   1.000  C 
  C64      1.0000 0.74954  0.22107  0.36744  Biso   1.000  C 
  Co1      1.0000 0.00531  0.55270  0.69791  Biso   1.000  Co
  Co2      1.0000 0.50904  0.98868  0.19892  Biso   1.000  Co
  Co3      1.0000 0.50531  0.05291  0.69832  Biso   1.000  Co
  Co4      1.0000 0.00905  0.48830  0.19858  Biso   1.000  Co
  H1       1.0000 0.16028  0.95136  0.70835  Biso   1.000  H 
  H2       1.0000 0.77182  0.06155  0.12514  Biso   1.000  H 
  H3       1.0000 0.40825  0.09635  0.29463  Biso   1.000  H 
  H4       1.0000 0.91749  0.77667  0.70747  Biso   1.000  H 
  H5       1.0000 0.41758  0.27729  0.70780  Biso   1.000  H 
  H6       1.0000 0.60619  0.94530  0.60288  Biso   1.000  H 
  H7       1.0000 0.10621  0.44536  0.60251  Biso   1.000  H 
  H8       1.0000 0.59672  0.76371  0.18940  Biso   1.000  H 
  H9       1.0000 0.35407  0.58980  0.18874  Biso   1.000  H 
  H10      1.0000 0.32327  0.91613  0.68179  Biso   1.000  H 
  H11      1.0000 0.83119  0.60588  0.29633  Biso   1.000  H 
  H12      1.0000 0.24246  0.97942  0.77182  Biso   1.000  H 
  H13      1.0000 0.74255  0.47893  0.77212  Biso   1.000  H 
  H14      1.0000 0.19107  0.62492  0.21539  Biso   1.000  H 
  H15      1.0000 0.69103  0.12496  0.21546  Biso   1.000  H 
  H16      1.0000 0.27188  0.56162  0.12533  Biso   1.000  H 
  H17      1.0000 0.66036  0.45100  0.70891  Biso   1.000  H 
  H18      1.0000 0.85402  0.08953  0.18833  Biso   1.000  H 
  H19      1.0000 0.90160  0.42212  0.75098  Biso   1.000  H 
  H20      1.0000 0.82335  0.41560  0.68172  Biso   1.000  H 
  H21      1.0000 0.26724  0.42510  0.59208  Biso   1.000  H 
  H22      1.0000 0.40155  0.92272  0.75130  Biso   1.000  H 
  H23      1.0000 0.67548  0.68966  0.15231  Biso   1.000  H 
  H24      1.0000 0.17551  0.18977  0.15206  Biso   1.000  H 
  H25      1.0000 0.33119  0.10662  0.29659  Biso   1.000  H 
  H26      1.0000 0.42869  0.71936  0.17091  Biso   1.000  H 
  H27      1.0000 0.92870  0.21903  0.17045  Biso   1.000  H 
  H28      1.0000 0.11282  0.61860  0.14563  Biso   1.000  H 
  H29      1.0000 0.61279  0.11874  0.14592  Biso   1.000  H 
  H30      1.0000 0.08564  0.82168  0.72612  Biso   1.000  H 
  H31      1.0000 0.68320  0.93476  0.60102  Biso   1.000  H 
  H32      1.0000 0.90828  0.59612  0.29451  Biso   1.000  H 
  H33      1.0000 0.76721  0.92513  0.59239  Biso   1.000  H 
  H34      1.0000 0.33887  0.35144  0.74511  Biso   1.000  H 
  H35      1.0000 0.83883  0.85128  0.74520  Biso   1.000  H 
  H36      1.0000 0.24718  0.11612  0.30525  Biso   1.000  H 
  H37      1.0000 0.58568  0.32167  0.72655  Biso   1.000  H 
  H38      1.0000 0.74718  0.61566  0.30528  Biso   1.000  H 
  H39      1.0000 0.09675  0.26364  0.18898  Biso   1.000  H 
  H40      1.0000 0.18323  0.43461  0.60058  Biso   1.000  H 
  N1       1.0000 0.46420  0.16742  0.88943  Biso   1.000  N 
  N2       1.0000 0.05455  0.62143  0.34040  Biso   1.000  N 
  N3       1.0000 0.04568  0.68758  0.52329  Biso   1.000  N 
  N4       1.0000 0.54570  0.18775  0.52369  Biso   1.000  N 
  N5       1.0000 0.95984  0.41938  0.55605  Biso   1.000  N 
  N6       1.0000 0.45980  0.91985  0.55644  Biso   1.000  N 
  N7       1.0000 0.96868  0.35325  0.37313  Biso   1.000  N 
  N8       1.0000 0.46112  0.10935  0.07483  Biso   1.000  N 
  N9       1.0000 0.55454  0.12167  0.34076  Biso   1.000  N 
  N10      1.0000 0.55326  0.93215  0.82247  Biso   1.000  N 
  N11      1.0000 0.96112  0.60907  0.07454  Biso   1.000  N 
  N12      1.0000 0.05329  0.43207  0.82208  Biso   1.000  N 
  N13      1.0000 0.05017  0.37375  0.00737  Biso   1.000  N 
  N14      1.0000 0.46865  0.85369  0.37355  Biso   1.000  N 
  N15      1.0000 0.96417  0.66705  0.88909  Biso   1.000  N 
  N16      1.0000 0.55015  0.87392  0.00781  Biso   1.000  N 
