data_image0
_cell_length_a       22.3382
_cell_length_b       21.6258
_cell_length_c       6.85804
_cell_angle_alpha    95.6599
_cell_angle_beta     97.9878
_cell_angle_gamma    90.0182

_symmetry_space_group_name_H-M    "P 1"
_symmetry_int_tables_number       1

loop_
  _symmetry_equiv_pos_as_xyz
  'x, y, z'

loop_
  _atom_site_label
  _atom_site_occupancy
  _atom_site_fract_x
  _atom_site_fract_y
  _atom_site_fract_z
  _atom_site_thermal_displace_type
  _atom_site_B_iso_or_equiv
  _atom_site_type_symbol
  C1       1.0000 0.32946  0.80255  0.22231  Biso   1.000  C 
  C2       1.0000 0.25610  0.22986  0.17705  Biso   1.000  C 
  C3       1.0000 0.80153  0.68774  0.16025  Biso   1.000  C 
  C4       1.0000 0.59022  0.13403  0.62927  Biso   1.000  C 
  C5       1.0000 0.09052  0.63393  0.63093  Biso   1.000  C 
  C6       1.0000 0.30162  0.18762  0.16022  Biso   1.000  C 
  C7       1.0000 0.83509  0.68415  0.99703  Biso   1.000  C 
  C8       1.0000 0.33500  0.18403  0.99655  Biso   1.000  C 
  C9       1.0000 0.82042  0.72488  0.85330  Biso   1.000  C 
  C10      1.0000 0.62671  0.14719  0.48614  Biso   1.000  C 
  C11      1.0000 0.12682  0.64718  0.48741  Biso   1.000  C 
  C12      1.0000 0.60798  0.10209  0.32665  Biso   1.000  C 
  C13      1.0000 0.10797  0.60213  0.32788  Biso   1.000  C 
  C14      1.0000 0.32018  0.22477  0.85292  Biso   1.000  C 
  C15      1.0000 0.75838  0.81065  0.71987  Biso   1.000  C 
  C16      1.0000 0.25809  0.31061  0.72023  Biso   1.000  C 
  C17      1.0000 0.77386  0.76880  0.86570  Biso   1.000  C 
  C18      1.0000 0.27370  0.26873  0.86590  Biso   1.000  C 
  C19      1.0000 0.74053  0.77184  0.03081  Biso   1.000  C 
  C20      1.0000 0.24057  0.27180  0.03150  Biso   1.000  C 
  C21      1.0000 0.69400  0.81578  0.04322  Biso   1.000  C 
  C22      1.0000 0.19409  0.31578  0.04453  Biso   1.000  C 
  C23      1.0000 0.67927  0.85647  0.89939  Biso   1.000  C 
  C24      1.0000 0.17922  0.35646  0.90077  Biso   1.000  C 
  C25      1.0000 0.71278  0.85283  0.73606  Biso   1.000  C 
  C26      1.0000 0.92421  0.40726  0.26820  Biso   1.000  C 
  C27      1.0000 0.42403  0.90720  0.26643  Biso   1.000  C 
  C28      1.0000 0.88773  0.39416  0.41140  Biso   1.000  C 
  C29      1.0000 0.84144  0.34544  0.39694  Biso   1.000  C 
  C30      1.0000 0.34117  0.84549  0.39549  Biso   1.000  C 
  C31      1.0000 0.75594  0.72993  0.17652  Biso   1.000  C 
  C32      1.0000 0.90664  0.43915  0.57105  Biso   1.000  C 
  C33      1.0000 0.38751  0.89418  0.40964  Biso   1.000  C 
  C34      1.0000 0.09388  0.41251  0.06455  Biso   1.000  C 
  C35      1.0000 0.40645  0.93919  0.56919  Biso   1.000  C 
  C36      1.0000 0.21254  0.35280  0.73697  Biso   1.000  C 
  C37      1.0000 0.22777  0.78541  0.69097  Biso   1.000  C 
  C38      1.0000 0.18463  0.73903  0.67436  Biso   1.000  C 
  C39      1.0000 0.13118  0.40196  0.91510  Biso   1.000  C 
  C40      1.0000 0.63119  0.90195  0.91331  Biso   1.000  C 
  C41      1.0000 0.11127  0.44597  0.78295  Biso   1.000  C 
  C42      1.0000 0.61116  0.94584  0.78082  Biso   1.000  C 
  C43      1.0000 0.68446  0.23896  0.67372  Biso   1.000  C 
  C44      1.0000 0.17296  0.69605  0.50127  Biso   1.000  C 
  C45      1.0000 0.67292  0.19602  0.50048  Biso   1.000  C 
  C46      1.0000 0.20672  0.70230  0.34822  Biso   1.000  C 
  C47      1.0000 0.70688  0.20227  0.34794  Biso   1.000  C 
  C48      1.0000 0.59398  0.91263  0.06296  Biso   1.000  C 
  C49      1.0000 0.72766  0.28530  0.69094  Biso   1.000  C 
  C50      1.0000 0.25139  0.74942  0.36071  Biso   1.000  C 
  C51      1.0000 0.28623  0.75626  0.20558  Biso   1.000  C 
  C52      1.0000 0.80743  0.33925  0.54941  Biso   1.000  C 
  C53      1.0000 0.78664  0.25620  0.20642  Biso   1.000  C 
  C54      1.0000 0.90331  0.59493  0.11599  Biso   1.000  C 
  C55      1.0000 0.40329  0.09478  0.11478  Biso   1.000  C 
  C56      1.0000 0.88323  0.63873  0.98329  Biso   1.000  C 
  C57      1.0000 0.82989  0.30250  0.22371  Biso   1.000  C 
  C58      1.0000 0.92056  0.62817  0.83396  Biso   1.000  C 
  C59      1.0000 0.42033  0.12807  0.83257  Biso   1.000  C 
  C60      1.0000 0.30730  0.83936  0.54835  Biso   1.000  C 
  C61      1.0000 0.75161  0.24936  0.36106  Biso   1.000  C 
  C62      1.0000 0.76266  0.29220  0.53626  Biso   1.000  C 
  C63      1.0000 0.26258  0.79229  0.53580  Biso   1.000  C 
  C64      1.0000 0.38311  0.13860  0.98226  Biso   1.000  C 
  Co1      1.0000 0.00742  0.53157  0.70319  Biso   1.000  Co
  Co2      1.0000 0.50735  0.00942  0.19449  Biso   1.000  Co
  Co3      1.0000 0.50727  0.03155  0.70133  Biso   1.000  Co
  Co4      1.0000 0.00739  0.50950  0.19625  Biso   1.000  Co
  H1       1.0000 0.85602  0.30618  0.10219  Biso   1.000  H 
  H2       1.0000 0.89159  0.44703  0.71529  Biso   1.000  H 
  H3       1.0000 0.38822  0.08564  0.25322  Biso   1.000  H 
  H4       1.0000 0.92136  0.65069  0.69961  Biso   1.000  H 
  H5       1.0000 0.42101  0.15063  0.69826  Biso   1.000  H 
  H6       1.0000 0.62630  0.95492  0.64243  Biso   1.000  H 
  H7       1.0000 0.12647  0.45516  0.64475  Biso   1.000  H 
  H8       1.0000 0.59320  0.89010  0.19730  Biso   1.000  H 
  H9       1.0000 0.27820  0.72411  0.07125  Biso   1.000  H 
  H10      1.0000 0.31466  0.87151  0.68285  Biso   1.000  H 
  H11      1.0000 0.77873  0.22408  0.07199  Biso   1.000  H 
  H12      1.0000 0.81466  0.37139  0.68397  Biso   1.000  H 
  H13      1.0000 0.81193  0.65607  0.27429  Biso   1.000  H 
  H14      1.0000 0.23580  0.81752  0.82538  Biso   1.000  H 
  H15      1.0000 0.73560  0.31740  0.82542  Biso   1.000  H 
  H16      1.0000 0.19938  0.67015  0.21372  Biso   1.000  H 
  H17      1.0000 0.69966  0.17014  0.21336  Biso   1.000  H 
  H18      1.0000 0.65843  0.23519  0.79542  Biso   1.000  H 
  H19      1.0000 0.35545  0.80620  0.10045  Biso   1.000  H 
  H20      1.0000 0.15873  0.73527  0.79637  Biso   1.000  H 
  H21      1.0000 0.16965  0.31705  0.17215  Biso   1.000  H 
  H22      1.0000 0.20193  0.38436  0.62272  Biso   1.000  H 
  H23      1.0000 0.70230  0.88440  0.62177  Biso   1.000  H 
  H24      1.0000 0.39141  0.94711  0.71344  Biso   1.000  H 
  H25      1.0000 0.31213  0.15596  0.27419  Biso   1.000  H 
  H26      1.0000 0.42523  0.88484  0.11814  Biso   1.000  H 
  H27      1.0000 0.92541  0.38497  0.11984  Biso   1.000  H 
  H28      1.0000 0.12292  0.59431  0.18348  Biso   1.000  H 
  H29      1.0000 0.62311  0.09419  0.18253  Biso   1.000  H 
  H30      1.0000 0.08936  0.65622  0.77930  Biso   1.000  H 
  H31      1.0000 0.09299  0.38983  0.19855  Biso   1.000  H 
  H32      1.0000 0.88814  0.58583  0.25431  Biso   1.000  H 
  H33      1.0000 0.66936  0.81699  0.17040  Biso   1.000  H 
  H34      1.0000 0.28305  0.30898  0.59378  Biso   1.000  H 
  H35      1.0000 0.78345  0.80901  0.59369  Biso   1.000  H 
  H36      1.0000 0.34466  0.22357  0.72543  Biso   1.000  H 
  H37      1.0000 0.84503  0.72370  0.72612  Biso   1.000  H 
  H38      1.0000 0.23113  0.23145  0.30347  Biso   1.000  H 
  H39      1.0000 0.73083  0.73149  0.30260  Biso   1.000  H 
  H40      1.0000 0.58892  0.15638  0.77750  Biso   1.000  H 
  N1       1.0000 0.05327  0.58515  0.56144  Biso   1.000  N 
  N2       1.0000 0.55299  0.08525  0.55960  Biso   1.000  N 
  N3       1.0000 0.96159  0.45592  0.33797  Biso   1.000  N 
  N4       1.0000 0.46146  0.95582  0.33610  Biso   1.000  N 
  N5       1.0000 0.95062  0.47569  0.52528  Biso   1.000  N 
  N6       1.0000 0.45047  0.97566  0.52336  Biso   1.000  N 
  N7       1.0000 0.05517  0.45883  0.02349  Biso   1.000  N 
  N8       1.0000 0.45924  0.08193  0.87385  Biso   1.000  N 
  N9       1.0000 0.56408  0.06544  0.37241  Biso   1.000  N 
  N10      1.0000 0.56589  0.97957  0.84726  Biso   1.000  N 
  N11      1.0000 0.95945  0.58203  0.87559  Biso   1.000  N 
  N12      1.0000 0.44865  0.06120  0.04831  Biso   1.000  N 
  N13      1.0000 0.94872  0.56133  0.04995  Biso   1.000  N 
  N14      1.0000 0.06597  0.47966  0.84939  Biso   1.000  N 
  N15      1.0000 0.06417  0.56544  0.37399  Biso   1.000  N 
  N16      1.0000 0.55521  0.95889  0.02171  Biso   1.000  N 
