data_image0
_cell_length_a       29.1345
_cell_length_b       6.64209
_cell_length_c       6.55852
_cell_angle_alpha    86.7875
_cell_angle_beta     86.5151
_cell_angle_gamma    90.7628

_symmetry_space_group_name_H-M    "P 1"
_symmetry_int_tables_number       1

loop_
  _symmetry_equiv_pos_as_xyz
  'x, y, z'

loop_
  _atom_site_label
  _atom_site_occupancy
  _atom_site_fract_x
  _atom_site_fract_y
  _atom_site_fract_z
  _atom_site_thermal_displace_type
  _atom_site_B_iso_or_equiv
  _atom_site_type_symbol
  C1       1.0000 0.33066  0.68867  0.24963  Biso   1.000  C 
  C2       1.0000 0.24466  0.24051  0.04257  Biso   1.000  C 
  C3       1.0000 0.39330  0.75615  0.47969  Biso   1.000  C 
  C4       1.0000 0.41322  0.86995  0.62765  Biso   1.000  C 
  C5       1.0000 0.18351  0.85323  0.64745  Biso   1.000  C 
  C6       1.0000 0.12200  0.28816  0.88767  Biso   1.000  C 
  C7       1.0000 0.62198  0.78803  0.88787  Biso   1.000  C 
  C8       1.0000 0.09540  0.38261  0.73910  Biso   1.000  C 
  C9       1.0000 0.59538  0.88254  0.73932  Biso   1.000  C 
  C10      1.0000 0.68354  0.35292  0.64763  Biso   1.000  C 
  C11      1.0000 0.16984  0.80441  0.45101  Biso   1.000  C 
  C12      1.0000 0.66986  0.30419  0.45120  Biso   1.000  C 
  C13      1.0000 0.20364  0.75242  0.30514  Biso   1.000  C 
  C14      1.0000 0.70364  0.25216  0.30527  Biso   1.000  C 
  C15      1.0000 0.59017  0.74738  0.05621  Biso   1.000  C 
  C16      1.0000 0.19773  0.33565  0.69034  Biso   1.000  C 
  C17      1.0000 0.25047  0.74612  0.34917  Biso   1.000  C 
  C18      1.0000 0.22882  0.84988  0.69402  Biso   1.000  C 
  C19      1.0000 0.81060  0.28925  0.59191  Biso   1.000  C 
  C20      1.0000 0.83066  0.18835  0.24952  Biso   1.000  C 
  C21      1.0000 0.91907  0.65774  0.15771  Biso   1.000  C 
  C22      1.0000 0.41908  0.15795  0.15796  Biso   1.000  C 
  C23      1.0000 0.89252  0.75268  0.00924  Biso   1.000  C 
  C24      1.0000 0.28536  0.69235  0.20302  Biso   1.000  C 
  C25      1.0000 0.92433  0.79296  0.84085  Biso   1.000  C 
  C26      1.0000 0.42436  0.29323  0.84112  Biso   1.000  C 
  C27      1.0000 0.31057  0.78957  0.59199  Biso   1.000  C 
  C28      1.0000 0.72886  0.34953  0.69412  Biso   1.000  C 
  C29      1.0000 0.26374  0.79614  0.54795  Biso   1.000  C 
  C30      1.0000 0.75047  0.24578  0.34922  Biso   1.000  C 
  C31      1.0000 0.09019  0.24742  0.05597  Biso   1.000  C 
  C32      1.0000 0.34434  0.73725  0.44612  Biso   1.000  C 
  C33      1.0000 0.39254  0.25295  0.00947  Biso   1.000  C 
  C34      1.0000 0.76969  0.69381  0.21685  Biso   1.000  C 
  C35      1.0000 0.78535  0.19202  0.20301  Biso   1.000  C 
  C36      1.0000 0.76376  0.29580  0.54797  Biso   1.000  C 
  C37      1.0000 0.91324  0.36968  0.62744  Biso   1.000  C 
  C38      1.0000 0.08330  0.82735  0.55260  Biso   1.000  C 
  C39      1.0000 0.31683  0.20631  0.20693  Biso   1.000  C 
  C40      1.0000 0.84244  0.76325  0.02004  Biso   1.000  C 
  C41      1.0000 0.34245  0.26358  0.02023  Biso   1.000  C 
  C42      1.0000 0.81843  0.81135  0.84762  Biso   1.000  C 
  C43      1.0000 0.62091  0.28466  0.41763  Biso   1.000  C 
  C44      1.0000 0.12089  0.78475  0.41738  Biso   1.000  C 
  C45      1.0000 0.60108  0.17037  0.26978  Biso   1.000  C 
  C46      1.0000 0.10108  0.67039  0.26953  Biso   1.000  C 
  C47      1.0000 0.31847  0.31172  0.84777  Biso   1.000  C 
  C48      1.0000 0.74481  0.84779  0.68037  Biso   1.000  C 
  C49      1.0000 0.26970  0.19416  0.21693  Biso   1.000  C 
  C50      1.0000 0.76988  0.80148  0.85468  Biso   1.000  C 
  C51      1.0000 0.81682  0.70596  0.20677  Biso   1.000  C 
  C52      1.0000 0.84436  0.23696  0.44597  Biso   1.000  C 
  C53      1.0000 0.89332  0.25592  0.47946  Biso   1.000  C 
  C54      1.0000 0.43085  0.71317  0.34435  Biso   1.000  C 
  C55      1.0000 0.93086  0.21303  0.34405  Biso   1.000  C 
  C56      1.0000 0.69768  0.83538  0.69039  Biso   1.000  C 
  C57      1.0000 0.24486  0.34813  0.68040  Biso   1.000  C 
  C58      1.0000 0.67208  0.77800  0.87712  Biso   1.000  C 
  C59      1.0000 0.19610  0.23041  0.04954  Biso   1.000  C 
  C60      1.0000 0.69608  0.73017  0.04959  Biso   1.000  C 
  C61      1.0000 0.58332  0.32734  0.55286  Biso   1.000  C 
  C62      1.0000 0.17211  0.27823  0.87701  Biso   1.000  C 
  C63      1.0000 0.74464  0.74019  0.04254  Biso   1.000  C 
  C64      1.0000 0.26991  0.30182  0.85475  Biso   1.000  C 
  Co1      1.0000 0.00976  0.46984  0.20490  Biso   1.000  Co
  Co2      1.0000 0.50462  0.06951  0.69200  Biso   1.000  Co
  Co3      1.0000 0.00461  0.56938  0.69175  Biso   1.000  Co
  Co4      1.0000 0.50975  0.96993  0.20518  Biso   1.000  Co
  H1       1.0000 0.17773  0.18622  0.19546  Biso   1.000  H 
  H2       1.0000 0.67772  0.68602  0.19555  Biso   1.000  H 
  H3       1.0000 0.33485  0.16949  0.34459  Biso   1.000  H 
  H4       1.0000 0.43183  0.63156  0.20517  Biso   1.000  H 
  H5       1.0000 0.93183  0.13147  0.20484  Biso   1.000  H 
  H6       1.0000 0.11722  0.60342  0.13659  Biso   1.000  H 
  H7       1.0000 0.61720  0.10340  0.13680  Biso   1.000  H 
  H8       1.0000 0.08223  0.90913  0.69167  Biso   1.000  H 
  H9       1.0000 0.09511  0.17622  0.20612  Biso   1.000  H 
  H10      1.0000 0.90879  0.60115  0.31208  Biso   1.000  H 
  H11      1.0000 0.76373  0.89422  0.53728  Biso   1.000  H 
  H12      1.0000 0.33685  0.35584  0.70185  Biso   1.000  H 
  H13      1.0000 0.83680  0.85541  0.70165  Biso   1.000  H 
  H14      1.0000 0.25078  0.14776  0.36000  Biso   1.000  H 
  H15      1.0000 0.58227  0.40913  0.69193  Biso   1.000  H 
  H16      1.0000 0.75078  0.64741  0.35995  Biso   1.000  H 
  H17      1.0000 0.17972  0.37237  0.55265  Biso   1.000  H 
  H18      1.0000 0.39715  0.93699  0.76071  Biso   1.000  H 
  H19      1.0000 0.67966  0.87210  0.55274  Biso   1.000  H 
  H20      1.0000 0.26378  0.39459  0.53734  Biso   1.000  H 
  H21      1.0000 0.83485  0.66913  0.34439  Biso   1.000  H 
  H22      1.0000 0.89718  0.43667  0.76053  Biso   1.000  H 
  H23      1.0000 0.81986  0.32919  0.74349  Biso   1.000  H 
  H24      1.0000 0.77579  0.15249  0.05207  Biso   1.000  H 
  H25      1.0000 0.40878  0.10133  0.31233  Biso   1.000  H 
  H26      1.0000 0.91942  0.86421  0.69069  Biso   1.000  H 
  H27      1.0000 0.41947  0.36450  0.69096  Biso   1.000  H 
  H28      1.0000 0.60566  0.93921  0.58497  Biso   1.000  H 
  H29      1.0000 0.10569  0.43932  0.58476  Biso   1.000  H 
  H30      1.0000 0.59509  0.67619  0.20638  Biso   1.000  H 
  H31      1.0000 0.15739  0.89147  0.76420  Biso   1.000  H 
  H32      1.0000 0.31981  0.82951  0.74359  Biso   1.000  H 
  H33      1.0000 0.23835  0.88956  0.84498  Biso   1.000  H 
  H34      1.0000 0.73841  0.38913  0.84508  Biso   1.000  H 
  H35      1.0000 0.19442  0.71230  0.15357  Biso   1.000  H 
  H36      1.0000 0.69440  0.21208  0.15371  Biso   1.000  H 
  H37      1.0000 0.27581  0.65284  0.05206  Biso   1.000  H 
  H38      1.0000 0.65743  0.39115  0.76443  Biso   1.000  H 
  H39      1.0000 0.85676  0.14993  0.13276  Biso   1.000  H 
  H40      1.0000 0.35677  0.65022  0.13293  Biso   1.000  H 
  N1       1.0000 0.46962  0.80252  0.40240  Biso   1.000  N 
  N2       1.0000 0.04857  0.32122  0.01262  Biso   1.000  N 
  N3       1.0000 0.05202  0.40502  0.81636  Biso   1.000  N 
  N4       1.0000 0.96243  0.63473  0.08032  Biso   1.000  N 
  N5       1.0000 0.55200  0.90507  0.81663  Biso   1.000  N 
  N6       1.0000 0.55584  0.14013  0.31996  Biso   1.000  N 
  N7       1.0000 0.46243  0.13489  0.08061  Biso   1.000  N 
  N8       1.0000 0.54462  0.23741  0.49481  Biso   1.000  N 
  N9       1.0000 0.45847  0.89968  0.57742  Biso   1.000  N 
  N10      1.0000 0.95849  0.39949  0.57715  Biso   1.000  N 
  N11      1.0000 0.04461  0.73733  0.49453  Biso   1.000  N 
  N12      1.0000 0.05585  0.64006  0.31970  Biso   1.000  N 
  N13      1.0000 0.46593  0.21874  0.88436  Biso   1.000  N 
  N14      1.0000 0.96590  0.71854  0.88406  Biso   1.000  N 
  N15      1.0000 0.96963  0.30241  0.40209  Biso   1.000  N 
  N16      1.0000 0.54855  0.82128  0.01291  Biso   1.000  N 
