data_image0
_cell_length_a       22.2218
_cell_length_b       21.7242
_cell_length_c       7.11295
_cell_angle_alpha    94.4215
_cell_angle_beta     93.9281
_cell_angle_gamma    89.9788

_symmetry_space_group_name_H-M    "P 1"
_symmetry_int_tables_number       1

loop_
  _symmetry_equiv_pos_as_xyz
  'x, y, z'

loop_
  _atom_site_label
  _atom_site_occupancy
  _atom_site_fract_x
  _atom_site_fract_y
  _atom_site_fract_z
  _atom_site_thermal_displace_type
  _atom_site_B_iso_or_equiv
  _atom_site_type_symbol
  C1       1.0000 0.33193  0.80836  0.22999  Biso   1.000  C 
  C2       1.0000 0.40820  0.93478  0.57515  Biso   1.000  C 
  C3       1.0000 0.21371  0.35054  0.73819  Biso   1.000  C 
  C4       1.0000 0.22544  0.77927  0.68587  Biso   1.000  C 
  C5       1.0000 0.18234  0.73331  0.66728  Biso   1.000  C 
  C6       1.0000 0.13084  0.40165  0.91452  Biso   1.000  C 
  C7       1.0000 0.63089  0.90167  0.91447  Biso   1.000  C 
  C8       1.0000 0.10763  0.43981  0.77575  Biso   1.000  C 
  C9       1.0000 0.60766  0.93980  0.77566  Biso   1.000  C 
  C10      1.0000 0.68242  0.23314  0.66675  Biso   1.000  C 
  C11      1.0000 0.17229  0.69459  0.49648  Biso   1.000  C 
  C12      1.0000 0.67252  0.19432  0.49610  Biso   1.000  C 
  C13      1.0000 0.20764  0.70476  0.34765  Biso   1.000  C 
  C14      1.0000 0.70802  0.20440  0.34753  Biso   1.000  C 
  C15      1.0000 0.59661  0.91848  0.06978  Biso   1.000  C 
  C16      1.0000 0.72549  0.27912  0.68546  Biso   1.000  C 
  C17      1.0000 0.25225  0.75167  0.36208  Biso   1.000  C 
  C18      1.0000 0.28870  0.76252  0.21120  Biso   1.000  C 
  C19      1.0000 0.80666  0.33683  0.54943  Biso   1.000  C 
  C20      1.0000 0.78911  0.26223  0.21134  Biso   1.000  C 
  C21      1.0000 0.90659  0.60098  0.12165  Biso   1.000  C 
  C22      1.0000 0.40644  0.10088  0.12122  Biso   1.000  C 
  C23      1.0000 0.88339  0.63905  0.98265  Biso   1.000  C 
  C24      1.0000 0.83226  0.30814  0.23018  Biso   1.000  C 
  C25      1.0000 0.91790  0.62243  0.82778  Biso   1.000  C 
  C26      1.0000 0.41776  0.12230  0.82735  Biso   1.000  C 
  C27      1.0000 0.30655  0.83696  0.54952  Biso   1.000  C 
  C28      1.0000 0.75258  0.25138  0.36205  Biso   1.000  C 
  C29      1.0000 0.26185  0.79013  0.53494  Biso   1.000  C 
  C30      1.0000 0.38321  0.13890  0.98213  Biso   1.000  C 
  C31      1.0000 0.09658  0.41846  0.06985  Biso   1.000  C 
  C32      1.0000 0.38839  0.89540  0.41632  Biso   1.000  C 
  C33      1.0000 0.76203  0.28992  0.53477  Biso   1.000  C 
  C34      1.0000 0.75455  0.73241  0.17480  Biso   1.000  C 
  C35      1.0000 0.90829  0.43471  0.57536  Biso   1.000  C 
  C36      1.0000 0.25445  0.23232  0.17447  Biso   1.000  C 
  C37      1.0000 0.80027  0.68998  0.15818  Biso   1.000  C 
  C38      1.0000 0.09070  0.62742  0.62404  Biso   1.000  C 
  C39      1.0000 0.30014  0.18986  0.15773  Biso   1.000  C 
  C40      1.0000 0.83501  0.68466  0.99621  Biso   1.000  C 
  C41      1.0000 0.33482  0.18451  0.99564  Biso   1.000  C 
  C42      1.0000 0.82115  0.72391  0.85381  Biso   1.000  C 
  C43      1.0000 0.62630  0.14581  0.48102  Biso   1.000  C 
  C44      1.0000 0.12611  0.64603  0.48141  Biso   1.000  C 
  C45      1.0000 0.60630  0.10651  0.32223  Biso   1.000  C 
  C46      1.0000 0.10626  0.60666  0.32263  Biso   1.000  C 
  C47      1.0000 0.32094  0.22375  0.85323  Biso   1.000  C 
  C48      1.0000 0.75957  0.80818  0.72169  Biso   1.000  C 
  C49      1.0000 0.59090  0.12723  0.62375  Biso   1.000  C 
  C50      1.0000 0.77427  0.76787  0.86619  Biso   1.000  C 
  C51      1.0000 0.25941  0.30810  0.72135  Biso   1.000  C 
  C52      1.0000 0.84221  0.34687  0.40099  Biso   1.000  C 
  C53      1.0000 0.34203  0.84701  0.40091  Biso   1.000  C 
  C54      1.0000 0.42403  0.91382  0.27399  Biso   1.000  C 
  C55      1.0000 0.92413  0.41380  0.27419  Biso   1.000  C 
  C56      1.0000 0.71382  0.85058  0.73834  Biso   1.000  C 
  C57      1.0000 0.88851  0.39532  0.41650  Biso   1.000  C 
  C58      1.0000 0.67916  0.85594  0.90050  Biso   1.000  C 
  C59      1.0000 0.19297  0.31665  0.04271  Biso   1.000  C 
  C60      1.0000 0.69303  0.81669  0.04283  Biso   1.000  C 
  C61      1.0000 0.27411  0.26775  0.86578  Biso   1.000  C 
  C62      1.0000 0.23979  0.27266  0.03004  Biso   1.000  C 
  C63      1.0000 0.73989  0.77273  0.03032  Biso   1.000  C 
  C64      1.0000 0.17908  0.35591  0.90043  Biso   1.000  C 
  Co1      1.0000 0.00836  0.51461  0.19823  Biso   1.000  Co
  Co2      1.0000 0.50630  0.02660  0.69983  Biso   1.000  Co
  Co3      1.0000 0.00631  0.52664  0.70000  Biso   1.000  Co
  Co4      1.0000 0.50830  0.01460  0.19798  Biso   1.000  Co
  H1       1.0000 0.39398  0.93730  0.71861  Biso   1.000  H 
  H2       1.0000 0.70429  0.88121  0.62558  Biso   1.000  H 
  H3       1.0000 0.30965  0.15920  0.27039  Biso   1.000  H 
  H4       1.0000 0.42439  0.89683  0.12646  Biso   1.000  H 
  H5       1.0000 0.92449  0.39682  0.12665  Biso   1.000  H 
  H6       1.0000 0.12033  0.60422  0.17901  Biso   1.000  H 
  H7       1.0000 0.62029  0.10408  0.17850  Biso   1.000  H 
  H8       1.0000 0.09044  0.64434  0.77164  Biso   1.000  H 
  H9       1.0000 0.72864  0.73527  0.30020  Biso   1.000  H 
  H10      1.0000 0.89425  0.59774  0.26566  Biso   1.000  H 
  H11      1.0000 0.66728  0.81891  0.16852  Biso   1.000  H 
  H12      1.0000 0.28526  0.30522  0.59583  Biso   1.000  H 
  H13      1.0000 0.78546  0.80530  0.59626  Biso   1.000  H 
  H14      1.0000 0.34668  0.22152  0.72747  Biso   1.000  H 
  H15      1.0000 0.84695  0.72173  0.72816  Biso   1.000  H 
  H16      1.0000 0.22858  0.23522  0.29995  Biso   1.000  H 
  H17      1.0000 0.59074  0.14410  0.77141  Biso   1.000  H 
  H18      1.0000 0.20418  0.38122  0.62555  Biso   1.000  H 
  H19      1.0000 0.09891  0.40164  0.21000  Biso   1.000  H 
  H20      1.0000 0.16726  0.31888  0.16852  Biso   1.000  H 
  H21      1.0000 0.78263  0.23328  0.07898  Biso   1.000  H 
  H22      1.0000 0.35938  0.81489  0.11164  Biso   1.000  H 
  H23      1.0000 0.15497  0.72669  0.78575  Biso   1.000  H 
  H24      1.0000 0.89408  0.43722  0.71883  Biso   1.000  H 
  H25      1.0000 0.39408  0.09764  0.26522  Biso   1.000  H 
  H26      1.0000 0.91564  0.63922  0.68760  Biso   1.000  H 
  H27      1.0000 0.41552  0.13909  0.68715  Biso   1.000  H 
  H28      1.0000 0.61983  0.94294  0.63141  Biso   1.000  H 
  H29      1.0000 0.11981  0.44294  0.63150  Biso   1.000  H 
  H30      1.0000 0.59897  0.90167  0.20997  Biso   1.000  H 
  H31      1.0000 0.85976  0.31467  0.11197  Biso   1.000  H 
  H32      1.0000 0.31246  0.86583  0.68221  Biso   1.000  H 
  H33      1.0000 0.81243  0.36578  0.68199  Biso   1.000  H 
  H34      1.0000 0.80976  0.65931  0.27082  Biso   1.000  H 
  H35      1.0000 0.23199  0.80821  0.81822  Biso   1.000  H 
  H36      1.0000 0.73191  0.30814  0.81770  Biso   1.000  H 
  H37      1.0000 0.20175  0.67588  0.21499  Biso   1.000  H 
  H38      1.0000 0.70227  0.17543  0.21500  Biso   1.000  H 
  H39      1.0000 0.65492  0.22661  0.78499  Biso   1.000  H 
  H40      1.0000 0.28211  0.73362  0.07878  Biso   1.000  H 
  N1       1.0000 0.06337  0.47602  0.84367  Biso   1.000  N 
  N2       1.0000 0.95112  0.56501  0.05433  Biso   1.000  N 
  N3       1.0000 0.45102  0.06494  0.05403  Biso   1.000  N 
  N4       1.0000 0.95804  0.57828  0.87186  Biso   1.000  N 
  N5       1.0000 0.56337  0.97599  0.84354  Biso   1.000  N 
  N6       1.0000 0.56281  0.06799  0.36787  Biso   1.000  N 
  N7       1.0000 0.45796  0.07821  0.87156  Biso   1.000  N 
  N8       1.0000 0.46162  0.96023  0.34292  Biso   1.000  N 
  N9       1.0000 0.45180  0.97323  0.52986  Biso   1.000  N 
  N10      1.0000 0.95186  0.47320  0.53008  Biso   1.000  N 
  N11      1.0000 0.96168  0.46023  0.34314  Biso   1.000  N 
  N12      1.0000 0.55326  0.08084  0.55505  Biso   1.000  N 
  N13      1.0000 0.05317  0.58095  0.55528  Biso   1.000  N 
  N14      1.0000 0.06282  0.56806  0.36819  Biso   1.000  N 
  N15      1.0000 0.05659  0.46282  0.02629  Biso   1.000  N 
  N16      1.0000 0.55659  0.96280  0.02617  Biso   1.000  N 
