data_image0
_cell_length_a       25.7903
_cell_length_b       17.3356
_cell_length_c       6.4616
_cell_angle_alpha    97.4667
_cell_angle_beta     100.037
_cell_angle_gamma    90.1716

_symmetry_space_group_name_H-M    "P 1"
_symmetry_int_tables_number       1

loop_
  _symmetry_equiv_pos_as_xyz
  'x, y, z'

loop_
  _atom_site_label
  _atom_site_occupancy
  _atom_site_fract_x
  _atom_site_fract_y
  _atom_site_fract_z
  _atom_site_thermal_displace_type
  _atom_site_B_iso_or_equiv
  _atom_site_type_symbol
  C1       1.0000 0.32483  0.77968  0.21228  Biso   1.000  C 
  C2       1.0000 0.26363  0.21548  0.18217  Biso   1.000  C 
  C3       1.0000 0.80941  0.67638  0.16630  Biso   1.000  C 
  C4       1.0000 0.58957  0.15929  0.63457  Biso   1.000  C 
  C5       1.0000 0.08956  0.65935  0.63446  Biso   1.000  C 
  C6       1.0000 0.30948  0.17655  0.16670  Biso   1.000  C 
  C7       1.0000 0.83795  0.68472  0.99975  Biso   1.000  C 
  C8       1.0000 0.33801  0.18486  0.00009  Biso   1.000  C 
  C9       1.0000 0.81809  0.73345  0.85158  Biso   1.000  C 
  C10      1.0000 0.62524  0.15683  0.49166  Biso   1.000  C 
  C11      1.0000 0.12523  0.65686  0.49152  Biso   1.000  C 
  C12      1.0000 0.60445  0.09657  0.33030  Biso   1.000  C 
  C13      1.0000 0.10443  0.59662  0.33016  Biso   1.000  C 
  C14      1.0000 0.31820  0.23367  0.85206  Biso   1.000  C 
  C15      1.0000 0.75072  0.82501  0.71424  Biso   1.000  C 
  C16      1.0000 0.25080  0.32517  0.71459  Biso   1.000  C 
  C17      1.0000 0.77128  0.77462  0.86377  Biso   1.000  C 
  C18      1.0000 0.27137  0.27482  0.86419  Biso   1.000  C 
  C19      1.0000 0.74300  0.76571  0.03230  Biso   1.000  C 
  C20      1.0000 0.24307  0.26587  0.03263  Biso   1.000  C 
  C21      1.0000 0.69620  0.80695  0.04463  Biso   1.000  C 
  C22      1.0000 0.19625  0.30708  0.04488  Biso   1.000  C 
  C23      1.0000 0.67638  0.85572  0.89650  Biso   1.000  C 
  C24      1.0000 0.17645  0.35589  0.89681  Biso   1.000  C 
  C25      1.0000 0.70488  0.86397  0.72975  Biso   1.000  C 
  C26      1.0000 0.92468  0.38197  0.26245  Biso   1.000  C 
  C27      1.0000 0.42470  0.88191  0.26287  Biso   1.000  C 
  C28      1.0000 0.88905  0.38452  0.40557  Biso   1.000  C 
  C29      1.0000 0.84156  0.33656  0.39163  Biso   1.000  C 
  C30      1.0000 0.34163  0.83650  0.39223  Biso   1.000  C 
  C31      1.0000 0.76356  0.71531  0.18180  Biso   1.000  C 
  C32      1.0000 0.90999  0.44462  0.56711  Biso   1.000  C 
  C33      1.0000 0.38910  0.88448  0.40609  Biso   1.000  C 
  C34      1.0000 0.09160  0.39144  0.04642  Biso   1.000  C 
  C35      1.0000 0.41004  0.94461  0.56751  Biso   1.000  C 
  C36      1.0000 0.20494  0.36409  0.73000  Biso   1.000  C 
  C37      1.0000 0.23413  0.80731  0.70203  Biso   1.000  C 
  C38      1.0000 0.18947  0.76175  0.68555  Biso   1.000  C 
  C39      1.0000 0.12795  0.39818  0.90968  Biso   1.000  C 
  C40      1.0000 0.62786  0.89796  0.90935  Biso   1.000  C 
  C41      1.0000 0.10657  0.45573  0.78714  Biso   1.000  C 
  C42      1.0000 0.60646  0.95551  0.78684  Biso   1.000  C 
  C43      1.0000 0.68947  0.26183  0.68552  Biso   1.000  C 
  C44      1.0000 0.17266  0.70494  0.50553  Biso   1.000  C 
  C45      1.0000 0.67265  0.20498  0.50559  Biso   1.000  C 
  C46      1.0000 0.20279  0.69655  0.34547  Biso   1.000  C 
  C47      1.0000 0.70275  0.19657  0.34546  Biso   1.000  C 
  C48      1.0000 0.59151  0.89119  0.04608  Biso   1.000  C 
  C49      1.0000 0.73411  0.30743  0.70173  Biso   1.000  C 
  C50      1.0000 0.24898  0.74222  0.35798  Biso   1.000  C 
  C51      1.0000 0.28017  0.73411  0.19595  Biso   1.000  C 
  C52      1.0000 0.81147  0.34502  0.55188  Biso   1.000  C 
  C53      1.0000 0.78006  0.23417  0.19556  Biso   1.000  C 
  C54      1.0000 0.90797  0.58516  0.10988  Biso   1.000  C 
  C55      1.0000 0.40792  0.08508  0.10986  Biso   1.000  C 
  C56      1.0000 0.88653  0.64263  0.98718  Biso   1.000  C 
  C57      1.0000 0.82471  0.27974  0.21168  Biso   1.000  C 
  C58      1.0000 0.92294  0.64957  0.85077  Biso   1.000  C 
  C59      1.0000 0.42295  0.14951  0.85089  Biso   1.000  C 
  C60      1.0000 0.31153  0.84494  0.55242  Biso   1.000  C 
  C61      1.0000 0.74890  0.24228  0.35771  Biso   1.000  C 
  C62      1.0000 0.76530  0.29934  0.53965  Biso   1.000  C 
  C63      1.0000 0.26535  0.79925  0.54001  Biso   1.000  C 
  C64      1.0000 0.38653  0.14264  0.98732  Biso   1.000  C 
  Co1      1.0000 0.00739  0.54528  0.70772  Biso   1.000  Co
  Co2      1.0000 0.50708  0.99561  0.18970  Biso   1.000  Co
  Co3      1.0000 0.50740  0.04525  0.70783  Biso   1.000  Co
  Co4      1.0000 0.00708  0.49570  0.18964  Biso   1.000  Co
  H1       1.0000 0.84750  0.27239  0.08355  Biso   1.000  H 
  H2       1.0000 0.89605  0.46715  0.71182  Biso   1.000  H 
  H3       1.0000 0.39360  0.06061  0.23641  Biso   1.000  H 
  H4       1.0000 0.92256  0.68657  0.72726  Biso   1.000  H 
  H5       1.0000 0.42259  0.18649  0.72733  Biso   1.000  H 
  H6       1.0000 0.62069  0.97990  0.66000  Biso   1.000  H 
  H7       1.0000 0.12084  0.48013  0.66040  Biso   1.000  H 
  H8       1.0000 0.59188  0.85417  0.16955  Biso   1.000  H 
  H9       1.0000 0.26793  0.69138  0.05602  Biso   1.000  H 
  H10      1.0000 0.32317  0.88787  0.69257  Biso   1.000  H 
  H11      1.0000 0.76781  0.19143  0.05567  Biso   1.000  H 
  H12      1.0000 0.82314  0.38797  0.69199  Biso   1.000  H 
  H13      1.0000 0.82426  0.63842  0.28420  Biso   1.000  H 
  H14      1.0000 0.24634  0.85004  0.84203  Biso   1.000  H 
  H15      1.0000 0.74633  0.35018  0.84167  Biso   1.000  H 
  H16      1.0000 0.19119  0.65364  0.20528  Biso   1.000  H 
  H17      1.0000 0.69114  0.15361  0.20540  Biso   1.000  H 
  H18      1.0000 0.66666  0.26919  0.81358  Biso   1.000  H 
  H19      1.0000 0.34765  0.77233  0.08428  Biso   1.000  H 
  H20      1.0000 0.16663  0.76907  0.81352  Biso   1.000  H 
  H21      1.0000 0.17576  0.29988  0.17573  Biso   1.000  H 
  H22      1.0000 0.19007  0.40197  0.61196  Biso   1.000  H 
  H23      1.0000 0.69004  0.90193  0.61187  Biso   1.000  H 
  H24      1.0000 0.39612  0.96718  0.71223  Biso   1.000  H 
  H25      1.0000 0.32435  0.13863  0.28467  Biso   1.000  H 
  H26      1.0000 0.42424  0.84516  0.11305  Biso   1.000  H 
  H27      1.0000 0.92424  0.34526  0.11257  Biso   1.000  H 
  H28      1.0000 0.11845  0.57405  0.18569  Biso   1.000  H 
  H29      1.0000 0.61848  0.07402  0.18583  Biso   1.000  H 
  H30      1.0000 0.08990  0.69615  0.78411  Biso   1.000  H 
  H31      1.0000 0.09198  0.35450  0.17006  Biso   1.000  H 
  H32      1.0000 0.89371  0.56073  0.23658  Biso   1.000  H 
  H33      1.0000 0.67573  0.79981  0.17560  Biso   1.000  H 
  H34      1.0000 0.27196  0.33245  0.58577  Biso   1.000  H 
  H35      1.0000 0.77189  0.83233  0.58548  Biso   1.000  H 
  H36      1.0000 0.33871  0.24094  0.72132  Biso   1.000  H 
  H37      1.0000 0.83858  0.74065  0.72071  Biso   1.000  H 
  H38      1.0000 0.24246  0.20812  0.31093  Biso   1.000  H 
  H39      1.0000 0.74238  0.70793  0.31055  Biso   1.000  H 
  H40      1.0000 0.58988  0.19610  0.78420  Biso   1.000  H 
  N1       1.0000 0.05063  0.60521  0.56214  Biso   1.000  N 
  N2       1.0000 0.55065  0.10512  0.56223  Biso   1.000  N 
  N3       1.0000 0.96372  0.43592  0.33494  Biso   1.000  N 
  N4       1.0000 0.46374  0.93588  0.33518  Biso   1.000  N 
  N5       1.0000 0.95445  0.47469  0.52272  Biso   1.000  N 
  N6       1.0000 0.45447  0.97468  0.52290  Biso   1.000  N 
  N7       1.0000 0.05185  0.44081  0.00671  Biso   1.000  N 
  N8       1.0000 0.46273  0.10022  0.89082  Biso   1.000  N 
  N9       1.0000 0.56005  0.06630  0.37468  Biso   1.000  N 
  N10      1.0000 0.56115  0.98050  0.84702  Biso   1.000  N 
  N11      1.0000 0.96276  0.60034  0.89074  Biso   1.000  N 
  N12      1.0000 0.45331  0.06024  0.05015  Biso   1.000  N 
  N13      1.0000 0.95337  0.56037  0.05014  Biso   1.000  N 
  N14      1.0000 0.06123  0.48070  0.84715  Biso   1.000  N 
  N15      1.0000 0.06003  0.56638  0.37462  Biso   1.000  N 
  N16      1.0000 0.55177  0.94059  0.00656  Biso   1.000  N 
