data_image0
_cell_length_a       27.9631
_cell_length_b       13.0029
_cell_length_c       6.51095
_cell_angle_alpha    100.257
_cell_angle_beta     95.1388
_cell_angle_gamma    90.2629

_symmetry_space_group_name_H-M    "P 1"
_symmetry_int_tables_number       1

loop_
  _symmetry_equiv_pos_as_xyz
  'x, y, z'

loop_
  _atom_site_label
  _atom_site_occupancy
  _atom_site_fract_x
  _atom_site_fract_y
  _atom_site_fract_z
  _atom_site_thermal_displace_type
  _atom_site_B_iso_or_equiv
  _atom_site_type_symbol
  C1       1.0000 0.32297  0.75712  0.20276  Biso   1.000  C 
  C2       1.0000 0.91458  0.43608  0.57750  Biso   1.000  C 
  C3       1.0000 0.26518  0.20313  0.18027  Biso   1.000  C 
  C4       1.0000 0.81223  0.67320  0.17430  Biso   1.000  C 
  C5       1.0000 0.08833  0.69116  0.63583  Biso   1.000  C 
  C6       1.0000 0.31225  0.17334  0.17445  Biso   1.000  C 
  C7       1.0000 0.84060  0.69610  0.01570  Biso   1.000  C 
  C8       1.0000 0.34062  0.19621  0.01586  Biso   1.000  C 
  C9       1.0000 0.81947  0.75031  0.86649  Biso   1.000  C 
  C10      1.0000 0.62254  0.17705  0.48763  Biso   1.000  C 
  C11      1.0000 0.12255  0.67700  0.48754  Biso   1.000  C 
  C12      1.0000 0.59987  0.10474  0.31988  Biso   1.000  C 
  C13      1.0000 0.09988  0.60471  0.31977  Biso   1.000  C 
  C14      1.0000 0.31950  0.25042  0.86663  Biso   1.000  C 
  C15      1.0000 0.74921  0.83778  0.71716  Biso   1.000  C 
  C16      1.0000 0.58832  0.19117  0.63593  Biso   1.000  C 
  C17      1.0000 0.77128  0.78250  0.86888  Biso   1.000  C 
  C18      1.0000 0.24924  0.33787  0.71721  Biso   1.000  C 
  C19      1.0000 0.84315  0.32010  0.39310  Biso   1.000  C 
  C20      1.0000 0.34316  0.82005  0.39318  Biso   1.000  C 
  C21      1.0000 0.42604  0.84980  0.26130  Biso   1.000  C 
  C22      1.0000 0.92604  0.34986  0.26120  Biso   1.000  C 
  C23      1.0000 0.70212  0.86747  0.72291  Biso   1.000  C 
  C24      1.0000 0.89183  0.36403  0.40953  Biso   1.000  C 
  C25      1.0000 0.67376  0.84463  0.88156  Biso   1.000  C 
  C26      1.0000 0.19492  0.29062  0.03094  Biso   1.000  C 
  C27      1.0000 0.69491  0.79054  0.03095  Biso   1.000  C 
  C28      1.0000 0.27130  0.28258  0.86895  Biso   1.000  C 
  C29      1.0000 0.74310  0.75836  0.02857  Biso   1.000  C 
  C30      1.0000 0.17379  0.34471  0.88155  Biso   1.000  C 
  C31      1.0000 0.76517  0.70302  0.18021  Biso   1.000  C 
  C32      1.0000 0.76706  0.30243  0.54461  Biso   1.000  C 
  C33      1.0000 0.24311  0.25845  0.02860  Biso   1.000  C 
  C34      1.0000 0.08987  0.36169  0.02257  Biso   1.000  C 
  C35      1.0000 0.39184  0.86399  0.40960  Biso   1.000  C 
  C36      1.0000 0.41456  0.93606  0.57756  Biso   1.000  C 
  C37      1.0000 0.20215  0.36757  0.72294  Biso   1.000  C 
  C38      1.0000 0.19133  0.78437  0.69397  Biso   1.000  C 
  C39      1.0000 0.12446  0.38091  0.88847  Biso   1.000  C 
  C40      1.0000 0.62444  0.88086  0.88855  Biso   1.000  C 
  C41      1.0000 0.10135  0.44945  0.76865  Biso   1.000  C 
  C42      1.0000 0.60134  0.94938  0.76869  Biso   1.000  C 
  C43      1.0000 0.69133  0.28447  0.69397  Biso   1.000  C 
  C44      1.0000 0.17117  0.72124  0.50373  Biso   1.000  C 
  C45      1.0000 0.67115  0.22133  0.50377  Biso   1.000  C 
  C46      1.0000 0.19950  0.70041  0.33657  Biso   1.000  C 
  C47      1.0000 0.69948  0.20050  0.33657  Biso   1.000  C 
  C48      1.0000 0.58985  0.86169  0.02270  Biso   1.000  C 
  C49      1.0000 0.23761  0.82368  0.71357  Biso   1.000  C 
  C50      1.0000 0.24722  0.73916  0.35203  Biso   1.000  C 
  C51      1.0000 0.73761  0.32378  0.71354  Biso   1.000  C 
  C52      1.0000 0.26707  0.80235  0.54467  Biso   1.000  C 
  C53      1.0000 0.38994  0.15990  0.00871  Biso   1.000  C 
  C54      1.0000 0.31481  0.84097  0.56025  Biso   1.000  C 
  C55      1.0000 0.42452  0.17900  0.87445  Biso   1.000  C 
  C56      1.0000 0.92450  0.67896  0.87430  Biso   1.000  C 
  C57      1.0000 0.74720  0.23925  0.35198  Biso   1.000  C 
  C58      1.0000 0.88992  0.65982  0.00853  Biso   1.000  C 
  C59      1.0000 0.41305  0.09141  0.12866  Biso   1.000  C 
  C60      1.0000 0.91305  0.59135  0.12848  Biso   1.000  C 
  C61      1.0000 0.27667  0.71792  0.18306  Biso   1.000  C 
  C62      1.0000 0.77664  0.21800  0.18298  Biso   1.000  C 
  C63      1.0000 0.81480  0.34105  0.56015  Biso   1.000  C 
  C64      1.0000 0.82295  0.25719  0.20268  Biso   1.000  C 
  Co1      1.0000 0.50713  0.98716  0.18670  Biso   1.000  Co
  Co2      1.0000 0.00728  0.55356  0.71058  Biso   1.000  Co
  Co3      1.0000 0.00711  0.48714  0.18659  Biso   1.000  Co
  Co4      1.0000 0.50728  0.05354  0.71063  Biso   1.000  Co
  H1       1.0000 0.90172  0.46991  0.72667  Biso   1.000  H 
  H2       1.0000 0.16983  0.80124  0.82731  Biso   1.000  H 
  H3       1.0000 0.40015  0.05557  0.25221  Biso   1.000  H 
  H4       1.0000 0.92240  0.72609  0.75195  Biso   1.000  H 
  H5       1.0000 0.42243  0.22610  0.75206  Biso   1.000  H 
  H6       1.0000 0.61425  0.98524  0.64516  Biso   1.000  H 
  H7       1.0000 0.11427  0.48535  0.64520  Biso   1.000  H 
  H8       1.0000 0.59194  0.81449  0.14493  Biso   1.000  H 
  H9       1.0000 0.66983  0.30136  0.82732  Biso   1.000  H 
  H10      1.0000 0.32907  0.88893  0.70835  Biso   1.000  H 
  H11      1.0000 0.82907  0.38901  0.70824  Biso   1.000  H 
  H12      1.0000 0.82811  0.63095  0.29317  Biso   1.000  H 
  H13      1.0000 0.25240  0.87141  0.86092  Biso   1.000  H 
  H14      1.0000 0.75240  0.37151  0.86088  Biso   1.000  H 
  H15      1.0000 0.18526  0.65239  0.18850  Biso   1.000  H 
  H16      1.0000 0.68523  0.15249  0.18850  Biso   1.000  H 
  H17      1.0000 0.26186  0.67031  0.03560  Biso   1.000  H 
  H18      1.0000 0.34448  0.74026  0.06947  Biso   1.000  H 
  H19      1.0000 0.84445  0.24032  0.06938  Biso   1.000  H 
  H20      1.0000 0.76183  0.17040  0.03551  Biso   1.000  H 
  H21      1.0000 0.67445  0.77256  0.15581  Biso   1.000  H 
  H22      1.0000 0.09196  0.31448  0.14477  Biso   1.000  H 
  H23      1.0000 0.17446  0.27266  0.15583  Biso   1.000  H 
  H24      1.0000 0.68622  0.90959  0.60390  Biso   1.000  H 
  H25      1.0000 0.32812  0.13112  0.29338  Biso   1.000  H 
  H26      1.0000 0.42407  0.80235  0.10554  Biso   1.000  H 
  H27      1.0000 0.92405  0.30242  0.10544  Biso   1.000  H 
  H28      1.0000 0.11275  0.57081  0.17067  Biso   1.000  H 
  H29      1.0000 0.61274  0.07086  0.17074  Biso   1.000  H 
  H30      1.0000 0.09026  0.73874  0.79146  Biso   1.000  H 
  H31      1.0000 0.40172  0.96989  0.72676  Biso   1.000  H 
  H32      1.0000 0.90015  0.55547  0.25202  Biso   1.000  H 
  H33      1.0000 0.27023  0.35636  0.59448  Biso   1.000  H 
  H34      1.0000 0.77019  0.85624  0.59437  Biso   1.000  H 
  H35      1.0000 0.33995  0.26842  0.74175  Biso   1.000  H 
  H36      1.0000 0.83991  0.76830  0.74158  Biso   1.000  H 
  H37      1.0000 0.24421  0.18464  0.30304  Biso   1.000  H 
  H38      1.0000 0.59026  0.23874  0.79157  Biso   1.000  H 
  H39      1.0000 0.18627  0.40972  0.60395  Biso   1.000  H 
  H40      1.0000 0.74420  0.68453  0.30298  Biso   1.000  H 
  N1       1.0000 0.05603  0.57797  0.36627  Biso   1.000  N 
  N2       1.0000 0.04864  0.63146  0.56153  Biso   1.000  N 
  N3       1.0000 0.54864  0.13146  0.56165  Biso   1.000  N 
  N4       1.0000 0.96577  0.40934  0.33562  Biso   1.000  N 
  N5       1.0000 0.95844  0.46270  0.53103  Biso   1.000  N 
  N6       1.0000 0.45843  0.96268  0.53110  Biso   1.000  N 
  N7       1.0000 0.46578  0.90930  0.33572  Biso   1.000  N 
  N8       1.0000 0.96472  0.62544  0.91131  Biso   1.000  N 
  N9       1.0000 0.55602  0.07799  0.36638  Biso   1.000  N 
  N10      1.0000 0.55692  0.96967  0.82908  Biso   1.000  N 
  N11      1.0000 0.45748  0.07112  0.06829  Biso   1.000  N 
  N12      1.0000 0.95748  0.57111  0.06816  Biso   1.000  N 
  N13      1.0000 0.05693  0.46969  0.82903  Biso   1.000  N 
  N14      1.0000 0.04966  0.41527  0.98572  Biso   1.000  N 
  N15      1.0000 0.46473  0.12543  0.91143  Biso   1.000  N 
  N16      1.0000 0.54965  0.91528  0.98582  Biso   1.000  N 
