data_image0
_cell_length_a       29.1595
_cell_length_b       7.37884
_cell_length_c       6.81271
_cell_angle_alpha    88.11
_cell_angle_beta     87.3736
_cell_angle_gamma    91.5516

_symmetry_space_group_name_H-M    "P 1"
_symmetry_int_tables_number       1

loop_
  _symmetry_equiv_pos_as_xyz
  'x, y, z'

loop_
  _atom_site_label
  _atom_site_occupancy
  _atom_site_fract_x
  _atom_site_fract_y
  _atom_site_fract_z
  _atom_site_thermal_displace_type
  _atom_site_B_iso_or_equiv
  _atom_site_type_symbol
  C1       1.0000 0.32917  0.67242  0.26496  Biso   1.000  C 
  C2       1.0000 0.76466  0.30415  0.53968  Biso   1.000  C 
  C3       1.0000 0.91451  0.37387  0.61495  Biso   1.000  C 
  C4       1.0000 0.26919  0.18278  0.20091  Biso   1.000  C 
  C5       1.0000 0.08406  0.79274  0.56666  Biso   1.000  C 
  C6       1.0000 0.31639  0.18574  0.19208  Biso   1.000  C 
  C7       1.0000 0.84231  0.74453  0.01738  Biso   1.000  C 
  C8       1.0000 0.34232  0.24483  0.01769  Biso   1.000  C 
  C9       1.0000 0.81847  0.80415  0.85626  Biso   1.000  C 
  C10      1.0000 0.62062  0.26691  0.42908  Biso   1.000  C 
  C11      1.0000 0.12059  0.76706  0.42871  Biso   1.000  C 
  C12      1.0000 0.59987  0.16737  0.28212  Biso   1.000  C 
  C13      1.0000 0.09986  0.66738  0.28180  Biso   1.000  C 
  C14      1.0000 0.31849  0.30440  0.85647  Biso   1.000  C 
  C15      1.0000 0.74505  0.85811  0.69609  Biso   1.000  C 
  C16      1.0000 0.81642  0.68544  0.19184  Biso   1.000  C 
  C17      1.0000 0.76991  0.80200  0.86083  Biso   1.000  C 
  C18      1.0000 0.58410  0.29262  0.56705  Biso   1.000  C 
  C19      1.0000 0.74438  0.73873  0.03611  Biso   1.000  C 
  C20      1.0000 0.17200  0.29619  0.87937  Biso   1.000  C 
  C21      1.0000 0.69582  0.73644  0.04069  Biso   1.000  C 
  C22      1.0000 0.19583  0.23662  0.04054  Biso   1.000  C 
  C23      1.0000 0.67197  0.79592  0.87955  Biso   1.000  C 
  C24      1.0000 0.26993  0.30221  0.86087  Biso   1.000  C 
  C25      1.0000 0.69786  0.85500  0.70508  Biso   1.000  C 
  C26      1.0000 0.93042  0.24809  0.33044  Biso   1.000  C 
  C27      1.0000 0.43039  0.74860  0.33079  Biso   1.000  C 
  C28      1.0000 0.24511  0.35839  0.69607  Biso   1.000  C 
  C29      1.0000 0.84464  0.24424  0.44264  Biso   1.000  C 
  C30      1.0000 0.89384  0.27395  0.46805  Biso   1.000  C 
  C31      1.0000 0.76922  0.68253  0.20084  Biso   1.000  C 
  C32      1.0000 0.78345  0.16912  0.22303  Biso   1.000  C 
  C33      1.0000 0.34461  0.74469  0.44286  Biso   1.000  C 
  C34      1.0000 0.09124  0.28951  0.05564  Biso   1.000  C 
  C35      1.0000 0.24438  0.23891  0.03609  Biso   1.000  C 
  C36      1.0000 0.39380  0.77444  0.46838  Biso   1.000  C 
  C37      1.0000 0.41448  0.87427  0.61535  Biso   1.000  C 
  C38      1.0000 0.18526  0.86900  0.63181  Biso   1.000  C 
  C39      1.0000 0.12213  0.31484  0.89106  Biso   1.000  C 
  C40      1.0000 0.62210  0.81462  0.89133  Biso   1.000  C 
  C41      1.0000 0.09510  0.39507  0.74779  Biso   1.000  C 
  C42      1.0000 0.59507  0.89482  0.74805  Biso   1.000  C 
  C43      1.0000 0.68531  0.36867  0.63213  Biso   1.000  C 
  C44      1.0000 0.16980  0.79666  0.45398  Biso   1.000  C 
  C45      1.0000 0.66983  0.29640  0.45431  Biso   1.000  C 
  C46      1.0000 0.20253  0.73476  0.31868  Biso   1.000  C 
  C47      1.0000 0.70254  0.23449  0.31892  Biso   1.000  C 
  C48      1.0000 0.59122  0.78945  0.05596  Biso   1.000  C 
  C49      1.0000 0.19791  0.35532  0.70497  Biso   1.000  C 
  C50      1.0000 0.24977  0.73647  0.35719  Biso   1.000  C 
  C51      1.0000 0.23096  0.87181  0.67368  Biso   1.000  C 
  C52      1.0000 0.81190  0.30588  0.57807  Biso   1.000  C 
  C53      1.0000 0.82916  0.17208  0.26474  Biso   1.000  C 
  C54      1.0000 0.91920  0.64574  0.14913  Biso   1.000  C 
  C55      1.0000 0.41921  0.14615  0.14955  Biso   1.000  C 
  C56      1.0000 0.89219  0.72595  0.00577  Biso   1.000  C 
  C57      1.0000 0.28346  0.66937  0.22308  Biso   1.000  C 
  C58      1.0000 0.92312  0.75154  0.84136  Biso   1.000  C 
  C59      1.0000 0.42312  0.25187  0.84176  Biso   1.000  C 
  C60      1.0000 0.31185  0.80638  0.57814  Biso   1.000  C 
  C61      1.0000 0.73102  0.37138  0.67392  Biso   1.000  C 
  C62      1.0000 0.39220  0.22635  0.00619  Biso   1.000  C 
  C63      1.0000 0.26462  0.80455  0.53957  Biso   1.000  C 
  C64      1.0000 0.74978  0.23617  0.35729  Biso   1.000  C 
  Co1      1.0000 0.00466  0.55841  0.69485  Biso   1.000  Co
  Co2      1.0000 0.50970  0.98294  0.20265  Biso   1.000  Co
  Co3      1.0000 0.50465  0.05858  0.69523  Biso   1.000  Co
  Co4      1.0000 0.00970  0.48272  0.20237  Biso   1.000  Co
  H1       1.0000 0.16037  0.92106  0.73857  Biso   1.000  H 
  H2       1.0000 0.77262  0.11473  0.08500  Biso   1.000  H 
  H3       1.0000 0.40978  0.10281  0.30002  Biso   1.000  H 
  H4       1.0000 0.91750  0.80726  0.69511  Biso   1.000  H 
  H5       1.0000 0.41749  0.30755  0.69552  Biso   1.000  H 
  H6       1.0000 0.60447  0.93800  0.59751  Biso   1.000  H 
  H7       1.0000 0.10451  0.43840  0.59731  Biso   1.000  H 
  H8       1.0000 0.59687  0.73381  0.20221  Biso   1.000  H 
  H9       1.0000 0.35408  0.62067  0.15810  Biso   1.000  H 
  H10      1.0000 0.32224  0.86362  0.71562  Biso   1.000  H 
  H11      1.0000 0.83424  0.63808  0.32014  Biso   1.000  H 
  H12      1.0000 0.24180  0.92636  0.81158  Biso   1.000  H 
  H13      1.0000 0.74188  0.42580  0.81189  Biso   1.000  H 
  H14      1.0000 0.19213  0.67749  0.18122  Biso   1.000  H 
  H15      1.0000 0.69211  0.17727  0.18147  Biso   1.000  H 
  H16      1.0000 0.27267  0.61487  0.08506  Biso   1.000  H 
  H17      1.0000 0.66044  0.42069  0.73898  Biso   1.000  H 
  H18      1.0000 0.85405  0.12039  0.15775  Biso   1.000  H 
  H19      1.0000 0.89948  0.42434  0.75051  Biso   1.000  H 
  H20      1.0000 0.82232  0.36305  0.71554  Biso   1.000  H 
  H21      1.0000 0.26409  0.40552  0.56155  Biso   1.000  H 
  H22      1.0000 0.39946  0.92474  0.75094  Biso   1.000  H 
  H23      1.0000 0.67735  0.68924  0.17670  Biso   1.000  H 
  H24      1.0000 0.17733  0.18938  0.17649  Biso   1.000  H 
  H25      1.0000 0.33419  0.13852  0.32049  Biso   1.000  H 
  H26      1.0000 0.43053  0.68261  0.19062  Biso   1.000  H 
  H27      1.0000 0.93057  0.18207  0.19027  Biso   1.000  H 
  H28      1.0000 0.11483  0.61723  0.14597  Biso   1.000  H 
  H29      1.0000 0.61482  0.11713  0.14629  Biso   1.000  H 
  H30      1.0000 0.08398  0.85851  0.70695  Biso   1.000  H 
  H31      1.0000 0.68003  0.90216  0.57672  Biso   1.000  H 
  H32      1.0000 0.90977  0.60235  0.29958  Biso   1.000  H 
  H33      1.0000 0.76401  0.90515  0.56150  Biso   1.000  H 
  H34      1.0000 0.33699  0.35177  0.72058  Biso   1.000  H 
  H35      1.0000 0.83695  0.85148  0.72031  Biso   1.000  H 
  H36      1.0000 0.25020  0.13567  0.33539  Biso   1.000  H 
  H37      1.0000 0.58404  0.35829  0.70740  Biso   1.000  H 
  H38      1.0000 0.75025  0.63537  0.33536  Biso   1.000  H 
  H39      1.0000 0.09690  0.23388  0.20187  Biso   1.000  H 
  H40      1.0000 0.18010  0.40255  0.57660  Biso   1.000  H 
  N1       1.0000 0.46451  0.18521  0.88267  Biso   1.000  N 
  N2       1.0000 0.05522  0.63101  0.33326  Biso   1.000  N 
  N3       1.0000 0.04525  0.70864  0.51006  Biso   1.000  N 
  N4       1.0000 0.54527  0.20867  0.51042  Biso   1.000  N 
  N5       1.0000 0.95917  0.41019  0.56379  Biso   1.000  N 
  N6       1.0000 0.45914  0.91054  0.56421  Biso   1.000  N 
  N7       1.0000 0.96921  0.33229  0.38720  Biso   1.000  N 
  N8       1.0000 0.46198  0.12004  0.07383  Biso   1.000  N 
  N9       1.0000 0.55522  0.13109  0.33358  Biso   1.000  N 
  N10      1.0000 0.55233  0.92125  0.82401  Biso   1.000  N 
  N11      1.0000 0.96198  0.61971  0.07344  Biso   1.000  N 
  N12      1.0000 0.05235  0.42132  0.82368  Biso   1.000  N 
  N13      1.0000 0.04985  0.35625  0.01486  Biso   1.000  N 
  N14      1.0000 0.46918  0.83273  0.38758  Biso   1.000  N 
  N15      1.0000 0.96451  0.68493  0.88229  Biso   1.000  N 
  N16      1.0000 0.54984  0.85629  0.01523  Biso   1.000  N 
