data_image0
_cell_length_a       28.2774
_cell_length_b       11.731
_cell_length_c       6.80168
_cell_angle_alpha    107.911
_cell_angle_beta     92.0223
_cell_angle_gamma    90.568

_symmetry_space_group_name_H-M    "P 1"
_symmetry_int_tables_number       1

loop_
  _symmetry_equiv_pos_as_xyz
  'x, y, z'

loop_
  _atom_site_label
  _atom_site_occupancy
  _atom_site_fract_x
  _atom_site_fract_y
  _atom_site_fract_z
  _atom_site_thermal_displace_type
  _atom_site_B_iso_or_equiv
  _atom_site_type_symbol
  C1       1.0000 0.32656  0.70461  0.21726  Biso   1.000  C 
  C2       1.0000 0.91878  0.41664  0.57483  Biso   1.000  C 
  C3       1.0000 0.26118  0.20004  0.16100  Biso   1.000  C 
  C4       1.0000 0.80851  0.67438  0.16384  Biso   1.000  C 
  C5       1.0000 0.09031  0.70204  0.66131  Biso   1.000  C 
  C6       1.0000 0.30859  0.17494  0.16408  Biso   1.000  C 
  C7       1.0000 0.83985  0.70281  0.02482  Biso   1.000  C 
  C8       1.0000 0.33992  0.20319  0.02479  Biso   1.000  C 
  C9       1.0000 0.82119  0.75760  0.88551  Biso   1.000  C 
  C10      1.0000 0.62136  0.19407  0.50016  Biso   1.000  C 
  C11      1.0000 0.12131  0.69442  0.50053  Biso   1.000  C 
  C12      1.0000 0.59559  0.12460  0.32244  Biso   1.000  C 
  C13      1.0000 0.09556  0.62489  0.32285  Biso   1.000  C 
  C14      1.0000 0.32124  0.25792  0.88542  Biso   1.000  C 
  C15      1.0000 0.75315  0.84019  0.73640  Biso   1.000  C 
  C16      1.0000 0.59036  0.20174  0.66092  Biso   1.000  C 
  C17      1.0000 0.77268  0.78465  0.87850  Biso   1.000  C 
  C18      1.0000 0.25318  0.34046  0.73631  Biso   1.000  C 
  C19      1.0000 0.84424  0.30299  0.38591  Biso   1.000  C 
  C20      1.0000 0.34419  0.80309  0.38594  Biso   1.000  C 
  C21      1.0000 0.42417  0.83952  0.23626  Biso   1.000  C 
  C22      1.0000 0.92427  0.33934  0.23653  Biso   1.000  C 
  C23      1.0000 0.70575  0.86540  0.73332  Biso   1.000  C 
  C24      1.0000 0.89313  0.34705  0.39682  Biso   1.000  C 
  C25      1.0000 0.67439  0.83713  0.87246  Biso   1.000  C 
  C26      1.0000 0.19312  0.28275  0.01202  Biso   1.000  C 
  C27      1.0000 0.69304  0.78221  0.01168  Biso   1.000  C 
  C28      1.0000 0.27274  0.28501  0.87852  Biso   1.000  C 
  C29      1.0000 0.74154  0.75497  0.01850  Biso   1.000  C 
  C30      1.0000 0.17445  0.33752  0.87264  Biso   1.000  C 
  C31      1.0000 0.76109  0.69940  0.16059  Biso   1.000  C 
  C32      1.0000 0.76585  0.32027  0.53340  Biso   1.000  C 
  C33      1.0000 0.24162  0.25547  0.01875  Biso   1.000  C 
  C34      1.0000 0.08886  0.35215  0.99955  Biso   1.000  C 
  C35      1.0000 0.39307  0.84715  0.39666  Biso   1.000  C 
  C36      1.0000 0.41876  0.91660  0.57465  Biso   1.000  C 
  C37      1.0000 0.20579  0.36567  0.73331  Biso   1.000  C 
  C38      1.0000 0.18778  0.83710  0.67913  Biso   1.000  C 
  C39      1.0000 0.12477  0.37111  0.87383  Biso   1.000  C 
  C40      1.0000 0.62471  0.87078  0.87357  Biso   1.000  C 
  C41      1.0000 0.10261  0.44031  0.76217  Biso   1.000  C 
  C42      1.0000 0.60259  0.94000  0.76183  Biso   1.000  C 
  C43      1.0000 0.68781  0.33684  0.67889  Biso   1.000  C 
  C44      1.0000 0.17017  0.73851  0.51064  Biso   1.000  C 
  C45      1.0000 0.67022  0.23820  0.51039  Biso   1.000  C 
  C46      1.0000 0.20083  0.68250  0.35629  Biso   1.000  C 
  C47      1.0000 0.70089  0.18228  0.35604  Biso   1.000  C 
  C48      1.0000 0.58877  0.85190  0.99922  Biso   1.000  C 
  C49      1.0000 0.23407  0.87677  0.69017  Biso   1.000  C 
  C50      1.0000 0.24850  0.72125  0.36266  Biso   1.000  C 
  C51      1.0000 0.73409  0.37656  0.68993  Biso   1.000  C 
  C52      1.0000 0.26581  0.82040  0.53360  Biso   1.000  C 
  C53      1.0000 0.38961  0.16992  0.02368  Biso   1.000  C 
  C54      1.0000 0.31348  0.85912  0.54006  Biso   1.000  C 
  C55      1.0000 0.42548  0.18897  0.89785  Biso   1.000  C 
  C56      1.0000 0.92543  0.68880  0.89814  Biso   1.000  C 
  C57      1.0000 0.74855  0.22111  0.36243  Biso   1.000  C 
  C58      1.0000 0.88955  0.66960  0.02381  Biso   1.000  C 
  C59      1.0000 0.41183  0.10098  0.13560  Biso   1.000  C 
  C60      1.0000 0.91178  0.60065  0.13569  Biso   1.000  C 
  C61      1.0000 0.28025  0.66500  0.20604  Biso   1.000  C 
  C62      1.0000 0.78031  0.16492  0.20585  Biso   1.000  C 
  C63      1.0000 0.81352  0.35900  0.53997  Biso   1.000  C 
  C64      1.0000 0.82663  0.20455  0.21712  Biso   1.000  C 
  Co1      1.0000 0.50515  0.99158  0.18127  Biso   1.000  Co
  Co2      1.0000 0.00924  0.55009  0.71686  Biso   1.000  Co
  Co3      1.0000 0.00518  0.49158  0.18154  Biso   1.000  Co
  Co4      1.0000 0.50926  0.04996  0.71652  Biso   1.000  Co
  H1       1.0000 0.90887  0.44311  0.73509  Biso   1.000  H 
  H2       1.0000 0.16391  0.88237  0.79991  Biso   1.000  H 
  H3       1.0000 0.39789  0.06469  0.25117  Biso   1.000  H 
  H4       1.0000 0.92431  0.73546  0.78278  Biso   1.000  H 
  H5       1.0000 0.42437  0.23554  0.78237  Biso   1.000  H 
  H6       1.0000 0.61656  0.97620  0.64619  Biso   1.000  H 
  H7       1.0000 0.11654  0.47657  0.64655  Biso   1.000  H 
  H8       1.0000 0.58975  0.80496  0.11417  Biso   1.000  H 
  H9       1.0000 0.66394  0.38208  0.79973  Biso   1.000  H 
  H10      1.0000 0.32574  0.93657  0.66853  Biso   1.000  H 
  H11      1.0000 0.82578  0.43639  0.66856  Biso   1.000  H 
  H12      1.0000 0.82225  0.63117  0.27426  Biso   1.000  H 
  H13      1.0000 0.24697  0.95282  0.81975  Biso   1.000  H 
  H14      1.0000 0.74699  0.45263  0.81950  Biso   1.000  H 
  H15      1.0000 0.18854  0.60506  0.22785  Biso   1.000  H 
  H16      1.0000 0.68861  0.10481  0.22764  Biso   1.000  H 
  H17      1.0000 0.26733  0.58909  0.07620  Biso   1.000  H 
  H18      1.0000 0.35040  0.65936  0.09634  Biso   1.000  H 
  H19      1.0000 0.85048  0.15931  0.09625  Biso   1.000  H 
  H20      1.0000 0.76741  0.08899  0.07599  Biso   1.000  H 
  H21      1.0000 0.67027  0.76001  0.12167  Biso   1.000  H 
  H22      1.0000 0.08987  0.30520  0.11450  Biso   1.000  H 
  H23      1.0000 0.17038  0.26072  0.12222  Biso   1.000  H 
  H24      1.0000 0.69204  0.90874  0.62302  Biso   1.000  H 
  H25      1.0000 0.32235  0.13185  0.27467  Biso   1.000  H 
  H26      1.0000 0.41885  0.79733  0.07067  Biso   1.000  H 
  H27      1.0000 0.91898  0.29708  0.07095  Biso   1.000  H 
  H28      1.0000 0.10539  0.59829  0.16247  Biso   1.000  H 
  H29      1.0000 0.60540  0.09798  0.16202  Biso   1.000  H 
  H30      1.0000 0.09573  0.74423  0.82687  Biso   1.000  H 
  H31      1.0000 0.40889  0.94292  0.73495  Biso   1.000  H 
  H32      1.0000 0.89786  0.56432  0.25124  Biso   1.000  H 
  H33      1.0000 0.27639  0.36290  0.62805  Biso   1.000  H 
  H34      1.0000 0.77637  0.86272  0.62828  Biso   1.000  H 
  H35      1.0000 0.34404  0.28015  0.77560  Biso   1.000  H 
  H36      1.0000 0.84400  0.77992  0.77579  Biso   1.000  H 
  H37      1.0000 0.23800  0.17754  0.26930  Biso   1.000  H 
  H38      1.0000 0.59579  0.24385  0.82647  Biso   1.000  H 
  H39      1.0000 0.19207  0.40894  0.62292  Biso   1.000  H 
  H40      1.0000 0.73789  0.67673  0.26866  Biso   1.000  H 
  N1       1.0000 0.05305  0.59233  0.37470  Biso   1.000  N 
  N2       1.0000 0.04967  0.63968  0.58451  Biso   1.000  N 
  N3       1.0000 0.54969  0.13949  0.58415  Biso   1.000  N 
  N4       1.0000 0.96487  0.40176  0.31379  Biso   1.000  N 
  N5       1.0000 0.96135  0.44920  0.52352  Biso   1.000  N 
  N6       1.0000 0.46132  0.94918  0.52325  Biso   1.000  N 
  N7       1.0000 0.46479  0.90187  0.31348  Biso   1.000  N 
  N8       1.0000 0.96541  0.63402  0.93056  Biso   1.000  N 
  N9       1.0000 0.55306  0.09215  0.37434  Biso   1.000  N 
  N10      1.0000 0.55754  0.96183  0.82004  Biso   1.000  N 
  N11      1.0000 0.45690  0.07952  0.07750  Biso   1.000  N 
  N12      1.0000 0.95687  0.57931  0.07766  Biso   1.000  N 
  N13      1.0000 0.05755  0.46205  0.82048  Biso   1.000  N 
  N14      1.0000 0.04895  0.40733  0.96750  Biso   1.000  N 
  N15      1.0000 0.46545  0.13412  0.93027  Biso   1.000  N 
  N16      1.0000 0.54889  0.90715  0.96707  Biso   1.000  N 
