data_image0
_cell_length_a       28.7168
_cell_length_b       10.2393
_cell_length_c       6.81624
_cell_angle_alpha    101.68
_cell_angle_beta     90.627
_cell_angle_gamma    91.0264

_symmetry_space_group_name_H-M    "P 1"
_symmetry_int_tables_number       1

loop_
  _symmetry_equiv_pos_as_xyz
  'x, y, z'

loop_
  _atom_site_label
  _atom_site_occupancy
  _atom_site_fract_x
  _atom_site_fract_y
  _atom_site_fract_z
  _atom_site_thermal_displace_type
  _atom_site_B_iso_or_equiv
  _atom_site_type_symbol
  C1       1.0000 0.32893  0.67498  0.26573  Biso   1.000  C 
  C2       1.0000 0.39426  0.83014  0.42170  Biso   1.000  C 
  C3       1.0000 0.41770  0.90901  0.58750  Biso   1.000  C 
  C4       1.0000 0.20292  0.37004  0.72728  Biso   1.000  C 
  C5       1.0000 0.18504  0.86778  0.63055  Biso   1.000  C 
  C6       1.0000 0.12411  0.36135  0.87903  Biso   1.000  C 
  C7       1.0000 0.62410  0.86131  0.87890  Biso   1.000  C 
  C8       1.0000 0.10006  0.43455  0.75747  Biso   1.000  C 
  C9       1.0000 0.60004  0.93450  0.75734  Biso   1.000  C 
  C10      1.0000 0.68503  0.36769  0.63051  Biso   1.000  C 
  C11      1.0000 0.16881  0.75457  0.48681  Biso   1.000  C 
  C12      1.0000 0.66881  0.25448  0.48676  Biso   1.000  C 
  C13      1.0000 0.20100  0.68072  0.36148  Biso   1.000  C 
  C14      1.0000 0.70101  0.18071  0.36138  Biso   1.000  C 
  C15      1.0000 0.59029  0.83838  0.01710  Biso   1.000  C 
  C16      1.0000 0.23159  0.90353  0.64699  Biso   1.000  C 
  C17      1.0000 0.24900  0.71491  0.37431  Biso   1.000  C 
  C18      1.0000 0.73159  0.40346  0.64702  Biso   1.000  C 
  C19      1.0000 0.26494  0.82850  0.52095  Biso   1.000  C 
  C20      1.0000 0.39056  0.17875  0.01868  Biso   1.000  C 
  C21      1.0000 0.31296  0.86254  0.53400  Biso   1.000  C 
  C22      1.0000 0.42442  0.20152  0.88061  Biso   1.000  C 
  C23      1.0000 0.92440  0.70151  0.88054  Biso   1.000  C 
  C24      1.0000 0.74900  0.21493  0.37421  Biso   1.000  C 
  C25      1.0000 0.89054  0.67871  0.01859  Biso   1.000  C 
  C26      1.0000 0.41448  0.10512  0.14000  Biso   1.000  C 
  C27      1.0000 0.91447  0.60516  0.13999  Biso   1.000  C 
  C28      1.0000 0.28235  0.63962  0.24866  Biso   1.000  C 
  C29      1.0000 0.81297  0.36253  0.53406  Biso   1.000  C 
  C30      1.0000 0.82894  0.17509  0.26560  Biso   1.000  C 
  C31      1.0000 0.09030  0.33846  0.01725  Biso   1.000  C 
  C32      1.0000 0.24291  0.25022  0.02327  Biso   1.000  C 
  C33      1.0000 0.78236  0.13971  0.24851  Biso   1.000  C 
  C34      1.0000 0.76450  0.69007  0.17047  Biso   1.000  C 
  C35      1.0000 0.76494  0.32848  0.52094  Biso   1.000  C 
  C36      1.0000 0.91770  0.40905  0.58754  Biso   1.000  C 
  C37      1.0000 0.26452  0.19011  0.17056  Biso   1.000  C 
  C38      1.0000 0.08673  0.72490  0.62844  Biso   1.000  C 
  C39      1.0000 0.31177  0.17041  0.17048  Biso   1.000  C 
  C40      1.0000 0.84096  0.70922  0.02292  Biso   1.000  C 
  C41      1.0000 0.34098  0.20929  0.02306  Biso   1.000  C 
  C42      1.0000 0.82031  0.76918  0.87888  Biso   1.000  C 
  C43      1.0000 0.61980  0.21151  0.47520  Biso   1.000  C 
  C44      1.0000 0.11980  0.71163  0.47526  Biso   1.000  C 
  C45      1.0000 0.59646  0.13204  0.30962  Biso   1.000  C 
  C46      1.0000 0.09644  0.63222  0.30966  Biso   1.000  C 
  C47      1.0000 0.32034  0.26932  0.87908  Biso   1.000  C 
  C48      1.0000 0.75019  0.85056  0.72720  Biso   1.000  C 
  C49      1.0000 0.81175  0.67035  0.17035  Biso   1.000  C 
  C50      1.0000 0.77182  0.79066  0.87468  Biso   1.000  C 
  C51      1.0000 0.58672  0.22480  0.62836  Biso   1.000  C 
  C52      1.0000 0.74289  0.75018  0.02318  Biso   1.000  C 
  C53      1.0000 0.17373  0.33117  0.87475  Biso   1.000  C 
  C54      1.0000 0.69440  0.77150  0.01890  Biso   1.000  C 
  C55      1.0000 0.19441  0.27145  0.01896  Biso   1.000  C 
  C56      1.0000 0.67371  0.83116  0.87463  Biso   1.000  C 
  C57      1.0000 0.27185  0.29075  0.87482  Biso   1.000  C 
  C58      1.0000 0.70291  0.86999  0.72712  Biso   1.000  C 
  C59      1.0000 0.92748  0.31589  0.26897  Biso   1.000  C 
  C60      1.0000 0.42747  0.81578  0.26897  Biso   1.000  C 
  C61      1.0000 0.25020  0.35068  0.72739  Biso   1.000  C 
  C62      1.0000 0.34517  0.78822  0.40938  Biso   1.000  C 
  C63      1.0000 0.84518  0.28828  0.40934  Biso   1.000  C 
  C64      1.0000 0.89427  0.33021  0.42170  Biso   1.000  C 
  Co1      1.0000 0.50750  0.05235  0.70922  Biso   1.000  Co
  Co2      1.0000 0.00696  0.48693  0.18837  Biso   1.000  Co
  Co3      1.0000 0.50696  0.98679  0.18834  Biso   1.000  Co
  Co4      1.0000 0.00751  0.55244  0.70933  Biso   1.000  Co
  H1       1.0000 0.68765  0.91782  0.61315  Biso   1.000  H 
  H2       1.0000 0.17331  0.24097  0.13488  Biso   1.000  H 
  H3       1.0000 0.32700  0.12225  0.28414  Biso   1.000  H 
  H4       1.0000 0.42414  0.76648  0.11249  Biso   1.000  H 
  H5       1.0000 0.92415  0.26665  0.11246  Biso   1.000  H 
  H6       1.0000 0.10841  0.59940  0.15743  Biso   1.000  H 
  H7       1.0000 0.60844  0.09914  0.15742  Biso   1.000  H 
  H8       1.0000 0.09007  0.77414  0.78497  Biso   1.000  H 
  H9       1.0000 0.18766  0.41789  0.61332  Biso   1.000  H 
  H10      1.0000 0.90228  0.56518  0.26649  Biso   1.000  H 
  H11      1.0000 0.27170  0.38202  0.61337  Biso   1.000  H 
  H12      1.0000 0.77169  0.88188  0.61318  Biso   1.000  H 
  H13      1.0000 0.34147  0.29976  0.76318  Biso   1.000  H 
  H14      1.0000 0.84144  0.79957  0.76295  Biso   1.000  H 
  H15      1.0000 0.24299  0.15871  0.28443  Biso   1.000  H 
  H16      1.0000 0.59005  0.27408  0.78486  Biso   1.000  H 
  H17      1.0000 0.74297  0.65870  0.28434  Biso   1.000  H 
  H18      1.0000 0.09324  0.28839  0.14273  Biso   1.000  H 
  H19      1.0000 0.40565  0.94224  0.73951  Biso   1.000  H 
  H20      1.0000 0.67329  0.74111  0.13487  Biso   1.000  H 
  H21      1.0000 0.82440  0.45118  0.64297  Biso   1.000  H 
  H22      1.0000 0.85399  0.11499  0.16912  Biso   1.000  H 
  H23      1.0000 0.77050  0.05266  0.13767  Biso   1.000  H 
  H24      1.0000 0.16001  0.92747  0.72775  Biso   1.000  H 
  H25      1.0000 0.40229  0.06512  0.26648  Biso   1.000  H 
  H26      1.0000 0.92154  0.75167  0.75511  Biso   1.000  H 
  H27      1.0000 0.42157  0.25169  0.75521  Biso   1.000  H 
  H28      1.0000 0.61213  0.97442  0.63062  Biso   1.000  H 
  H29      1.0000 0.11215  0.47447  0.63076  Biso   1.000  H 
  H30      1.0000 0.59324  0.78829  0.14257  Biso   1.000  H 
  H31      1.0000 0.90566  0.44225  0.73955  Biso   1.000  H 
  H32      1.0000 0.32440  0.95123  0.64284  Biso   1.000  H 
  H33      1.0000 0.82697  0.62216  0.28399  Biso   1.000  H 
  H34      1.0000 0.24345  0.99048  0.75800  Biso   1.000  H 
  H35      1.0000 0.74344  0.49039  0.75808  Biso   1.000  H 
  H36      1.0000 0.18957  0.59202  0.25266  Biso   1.000  H 
  H37      1.0000 0.68960  0.09202  0.25250  Biso   1.000  H 
  H38      1.0000 0.27049  0.55252  0.13791  Biso   1.000  H 
  H39      1.0000 0.35398  0.61486  0.16930  Biso   1.000  H 
  H40      1.0000 0.66001  0.42737  0.72770  Biso   1.000  H 
  N1       1.0000 0.04984  0.39599  0.98286  Biso   1.000  N 
  N2       1.0000 0.05599  0.45546  0.82161  Biso   1.000  N 
  N3       1.0000 0.95853  0.58400  0.07598  Biso   1.000  N 
  N4       1.0000 0.45854  0.08391  0.07594  Biso   1.000  N 
  N5       1.0000 0.55597  0.95537  0.82147  Biso   1.000  N 
  N6       1.0000 0.55334  0.09856  0.36191  Biso   1.000  N 
  N7       1.0000 0.96479  0.64366  0.91500  Biso   1.000  N 
  N8       1.0000 0.96716  0.38415  0.33794  Biso   1.000  N 
  N9       1.0000 0.46099  0.94129  0.53567  Biso   1.000  N 
  N10      1.0000 0.96100  0.44135  0.53575  Biso   1.000  N 
  N11      1.0000 0.54720  0.15552  0.55981  Biso   1.000  N 
  N12      1.0000 0.04720  0.65563  0.55992  Biso   1.000  N 
  N13      1.0000 0.05333  0.59873  0.36198  Biso   1.000  N 
  N14      1.0000 0.46480  0.14360  0.91498  Biso   1.000  N 
  N15      1.0000 0.46715  0.88402  0.33789  Biso   1.000  N 
  N16      1.0000 0.54982  0.89589  0.98270  Biso   1.000  N 
