data_image0
_cell_length_a       26.7827
_cell_length_b       15.6192
_cell_length_c       6.48527
_cell_angle_alpha    98.234
_cell_angle_beta     98.1677
_cell_angle_gamma    90.1996

_symmetry_space_group_name_H-M    "P 1"
_symmetry_int_tables_number       1

loop_
  _symmetry_equiv_pos_as_xyz
  'x, y, z'

loop_
  _atom_site_label
  _atom_site_occupancy
  _atom_site_fract_x
  _atom_site_fract_y
  _atom_site_fract_z
  _atom_site_thermal_displace_type
  _atom_site_B_iso_or_equiv
  _atom_site_type_symbol
  C1       1.0000 0.32371  0.77310  0.20880  Biso   1.000  C 
  C2       1.0000 0.41188  0.94357  0.57075  Biso   1.000  C 
  C3       1.0000 0.20321  0.36550  0.72729  Biso   1.000  C 
  C4       1.0000 0.23604  0.81263  0.70657  Biso   1.000  C 
  C5       1.0000 0.19070  0.76859  0.68896  Biso   1.000  C 
  C6       1.0000 0.12629  0.39337  0.90314  Biso   1.000  C 
  C7       1.0000 0.62625  0.89323  0.90316  Biso   1.000  C 
  C8       1.0000 0.10414  0.45490  0.78170  Biso   1.000  C 
  C9       1.0000 0.60412  0.95480  0.78181  Biso   1.000  C 
  C10      1.0000 0.69067  0.26871  0.68872  Biso   1.000  C 
  C11      1.0000 0.17222  0.70948  0.50494  Biso   1.000  C 
  C12      1.0000 0.67219  0.20956  0.50477  Biso   1.000  C 
  C13      1.0000 0.20134  0.69725  0.34216  Biso   1.000  C 
  C14      1.0000 0.70130  0.19731  0.34194  Biso   1.000  C 
  C15      1.0000 0.59070  0.88186  0.03838  Biso   1.000  C 
  C16      1.0000 0.73600  0.31275  0.70626  Biso   1.000  C 
  C17      1.0000 0.24815  0.74120  0.35574  Biso   1.000  C 
  C18      1.0000 0.27837  0.72909  0.19109  Biso   1.000  C 
  C19      1.0000 0.81301  0.34460  0.55509  Biso   1.000  C 
  C20      1.0000 0.77831  0.22917  0.19074  Biso   1.000  C 
  C21      1.0000 0.91038  0.58584  0.11544  Biso   1.000  C 
  C22      1.0000 0.41039  0.08591  0.11563  Biso   1.000  C 
  C23      1.0000 0.88805  0.64712  0.99369  Biso   1.000  C 
  C24      1.0000 0.82366  0.27318  0.20840  Biso   1.000  C 
  C25      1.0000 0.92359  0.65873  0.85854  Biso   1.000  C 
  C26      1.0000 0.42365  0.15881  0.85882  Biso   1.000  C 
  C27      1.0000 0.31304  0.84453  0.55548  Biso   1.000  C 
  C28      1.0000 0.74809  0.24130  0.35542  Biso   1.000  C 
  C29      1.0000 0.26623  0.80056  0.54182  Biso   1.000  C 
  C30      1.0000 0.38810  0.14724  0.99393  Biso   1.000  C 
  C31      1.0000 0.09073  0.38195  0.03826  Biso   1.000  C 
  C32      1.0000 0.39017  0.87917  0.40776  Biso   1.000  C 
  C33      1.0000 0.76620  0.30066  0.54149  Biso   1.000  C 
  C34      1.0000 0.76461  0.71088  0.18174  Biso   1.000  C 
  C35      1.0000 0.91187  0.44355  0.57050  Biso   1.000  C 
  C36      1.0000 0.26467  0.21109  0.18195  Biso   1.000  C 
  C37      1.0000 0.81101  0.67459  0.16919  Biso   1.000  C 
  C38      1.0000 0.08913  0.66945  0.63351  Biso   1.000  C 
  C39      1.0000 0.31105  0.17478  0.16938  Biso   1.000  C 
  C40      1.0000 0.83914  0.68739  0.00449  Biso   1.000  C 
  C41      1.0000 0.33921  0.18759  0.00474  Biso   1.000  C 
  C42      1.0000 0.81843  0.73802  0.85560  Biso   1.000  C 
  C43      1.0000 0.62426  0.16248  0.48982  Biso   1.000  C 
  C44      1.0000 0.12427  0.66245  0.48985  Biso   1.000  C 
  C45      1.0000 0.60263  0.09798  0.32688  Biso   1.000  C 
  C46      1.0000 0.10264  0.59797  0.32684  Biso   1.000  C 
  C47      1.0000 0.31852  0.23826  0.85592  Biso   1.000  C 
  C48      1.0000 0.74947  0.82881  0.71430  Biso   1.000  C 
  C49      1.0000 0.58914  0.16946  0.63357  Biso   1.000  C 
  C50      1.0000 0.77099  0.77662  0.86484  Biso   1.000  C 
  C51      1.0000 0.24957  0.32908  0.71460  Biso   1.000  C 
  C52      1.0000 0.84215  0.33230  0.39236  Biso   1.000  C 
  C53      1.0000 0.34218  0.83225  0.39276  Biso   1.000  C 
  C54      1.0000 0.42530  0.87203  0.26403  Biso   1.000  C 
  C55      1.0000 0.92528  0.37206  0.26371  Biso   1.000  C 
  C56      1.0000 0.70313  0.86527  0.72711  Biso   1.000  C 
  C57      1.0000 0.89015  0.37919  0.40741  Biso   1.000  C 
  C58      1.0000 0.67502  0.85255  0.89192  Biso   1.000  C 
  C59      1.0000 0.19574  0.30201  0.04073  Biso   1.000  C 
  C60      1.0000 0.69567  0.80177  0.04056  Biso   1.000  C 
  C61      1.0000 0.27109  0.27690  0.86516  Biso   1.000  C 
  C62      1.0000 0.24314  0.26327  0.03138  Biso   1.000  C 
  C63      1.0000 0.74306  0.76302  0.03112  Biso   1.000  C 
  C64      1.0000 0.17509  0.35277  0.89205  Biso   1.000  C 
  Co1      1.0000 0.00726  0.49258  0.18898  Biso   1.000  Co
  Co2      1.0000 0.50740  0.04859  0.70870  Biso   1.000  Co
  Co3      1.0000 0.00740  0.54862  0.70852  Biso   1.000  Co
  Co4      1.0000 0.50725  0.99257  0.18915  Biso   1.000  Co
  H1       1.0000 0.39832  0.97043  0.71591  Biso   1.000  H 
  H2       1.0000 0.68760  0.90472  0.60862  Biso   1.000  H 
  H3       1.0000 0.32659  0.13536  0.28795  Biso   1.000  H 
  H4       1.0000 0.42424  0.83123  0.11304  Biso   1.000  H 
  H5       1.0000 0.92423  0.33127  0.11271  Biso   1.000  H 
  H6       1.0000 0.11621  0.57112  0.18170  Biso   1.000  H 
  H7       1.0000 0.61619  0.07112  0.18172  Biso   1.000  H 
  H8       1.0000 0.09014  0.71029  0.78440  Biso   1.000  H 
  H9       1.0000 0.74380  0.70006  0.30911  Biso   1.000  H 
  H10      1.0000 0.89680  0.55712  0.24060  Biso   1.000  H 
  H11      1.0000 0.67546  0.79129  0.17002  Biso   1.000  H 
  H12      1.0000 0.27041  0.33989  0.58731  Biso   1.000  H 
  H13      1.0000 0.77031  0.83961  0.58699  Biso   1.000  H 
  H14      1.0000 0.33875  0.24883  0.72656  Biso   1.000  H 
  H15      1.0000 0.83866  0.74857  0.72622  Biso   1.000  H 
  H16      1.0000 0.24384  0.20027  0.30926  Biso   1.000  H 
  H17      1.0000 0.59016  0.21031  0.78445  Biso   1.000  H 
  H18      1.0000 0.18769  0.40495  0.60879  Biso   1.000  H 
  H19      1.0000 0.09184  0.34108  0.16081  Biso   1.000  H 
  H20      1.0000 0.17550  0.29150  0.17012  Biso   1.000  H 
  H21      1.0000 0.76479  0.18467  0.04785  Biso   1.000  H 
  H22      1.0000 0.34579  0.76278  0.07879  Biso   1.000  H 
  H23      1.0000 0.16865  0.77882  0.81908  Biso   1.000  H 
  H24      1.0000 0.89831  0.47040  0.71568  Biso   1.000  H 
  H25      1.0000 0.39679  0.05719  0.24075  Biso   1.000  H 
  H26      1.0000 0.92234  0.69948  0.73567  Biso   1.000  H 
  H27      1.0000 0.42243  0.19958  0.73600  Biso   1.000  H 
  H28      1.0000 0.61777  0.98349  0.65678  Biso   1.000  H 
  H29      1.0000 0.11780  0.48361  0.65668  Biso   1.000  H 
  H30      1.0000 0.59180  0.84098  0.16093  Biso   1.000  H 
  H31      1.0000 0.84572  0.26284  0.07837  Biso   1.000  H 
  H32      1.0000 0.32598  0.88928  0.69871  Biso   1.000  H 
  H33      1.0000 0.82596  0.38933  0.69835  Biso   1.000  H 
  H34      1.0000 0.82658  0.63523  0.28786  Biso   1.000  H 
  H35      1.0000 0.24956  0.85708  0.84954  Biso   1.000  H 
  H36      1.0000 0.74953  0.35722  0.84919  Biso   1.000  H 
  H37      1.0000 0.18838  0.65249  0.19895  Biso   1.000  H 
  H38      1.0000 0.68834  0.15255  0.19875  Biso   1.000  H 
  H39      1.0000 0.66863  0.27896  0.81886  Biso   1.000  H 
  H40      1.0000 0.26487  0.68457  0.04821  Biso   1.000  H 
  N1       1.0000 0.05919  0.47783  0.84113  Biso   1.000  N 
  N2       1.0000 0.95540  0.56324  0.05623  Biso   1.000  N 
  N3       1.0000 0.45540  0.06325  0.05642  Biso   1.000  N 
  N4       1.0000 0.96371  0.60844  0.89794  Biso   1.000  N 
  N5       1.0000 0.55918  0.97778  0.84134  Biso   1.000  N 
  N6       1.0000 0.55833  0.06951  0.37136  Biso   1.000  N 
  N7       1.0000 0.46374  0.10844  0.89817  Biso   1.000  N 
  N8       1.0000 0.46473  0.92757  0.33713  Biso   1.000  N 
  N9       1.0000 0.45623  0.97182  0.52638  Biso   1.000  N 
  N10      1.0000 0.95622  0.47181  0.52618  Biso   1.000  N 
  N11      1.0000 0.96472  0.42758  0.33690  Biso   1.000  N 
  N12      1.0000 0.54979  0.11373  0.56058  Biso   1.000  N 
  N13      1.0000 0.04978  0.61374  0.56041  Biso   1.000  N 
  N14      1.0000 0.05833  0.56953  0.37121  Biso   1.000  N 
  N15      1.0000 0.05076  0.43259  0.99920  Biso   1.000  N 
  N16      1.0000 0.55075  0.93255  0.99940  Biso   1.000  N 
