data_image0
_cell_length_a       27.4356
_cell_length_b       14.2833
_cell_length_c       6.49121
_cell_angle_alpha    99.1218
_cell_angle_beta     96.5889
_cell_angle_gamma    90.2268

_symmetry_space_group_name_H-M    "P 1"
_symmetry_int_tables_number       1

loop_
  _symmetry_equiv_pos_as_xyz
  'x, y, z'

loop_
  _atom_site_label
  _atom_site_occupancy
  _atom_site_fract_x
  _atom_site_fract_y
  _atom_site_fract_z
  _atom_site_thermal_displace_type
  _atom_site_B_iso_or_equiv
  _atom_site_type_symbol
  C1       1.0000 0.32334  0.76558  0.20637  Biso   1.000  C 
  C2       1.0000 0.41317  0.94090  0.57432  Biso   1.000  C 
  C3       1.0000 0.20275  0.36732  0.72538  Biso   1.000  C 
  C4       1.0000 0.23682  0.81775  0.71042  Biso   1.000  C 
  C5       1.0000 0.19101  0.77556  0.69169  Biso   1.000  C 
  C6       1.0000 0.12538  0.38842  0.89644  Biso   1.000  C 
  C7       1.0000 0.62537  0.88836  0.89647  Biso   1.000  C 
  C8       1.0000 0.10268  0.45320  0.77548  Biso   1.000  C 
  C9       1.0000 0.60268  0.95317  0.77556  Biso   1.000  C 
  C10      1.0000 0.69101  0.27564  0.69165  Biso   1.000  C 
  C11      1.0000 0.17172  0.71414  0.50469  Biso   1.000  C 
  C12      1.0000 0.67170  0.21420  0.50469  Biso   1.000  C 
  C13      1.0000 0.20051  0.69768  0.34007  Biso   1.000  C 
  C14      1.0000 0.70049  0.19773  0.34003  Biso   1.000  C 
  C15      1.0000 0.59032  0.87297  0.03099  Biso   1.000  C 
  C16      1.0000 0.73681  0.31785  0.71028  Biso   1.000  C 
  C17      1.0000 0.24773  0.73970  0.35454  Biso   1.000  C 
  C18      1.0000 0.27756  0.72331  0.18782  Biso   1.000  C 
  C19      1.0000 0.81385  0.34351  0.55781  Biso   1.000  C 
  C20      1.0000 0.77753  0.22334  0.18767  Biso   1.000  C 
  C21      1.0000 0.91173  0.58772  0.12107  Biso   1.000  C 
  C22      1.0000 0.41173  0.08778  0.12117  Biso   1.000  C 
  C23      1.0000 0.88903  0.65248  0.00010  Biso   1.000  C 
  C24      1.0000 0.82331  0.26560  0.20616  Biso   1.000  C 
  C25      1.0000 0.92412  0.66805  0.86591  Biso   1.000  C 
  C26      1.0000 0.42415  0.16814  0.86611  Biso   1.000  C 
  C27      1.0000 0.31388  0.84342  0.55807  Biso   1.000  C 
  C28      1.0000 0.74770  0.23975  0.35441  Biso   1.000  C 
  C29      1.0000 0.26664  0.80141  0.54367  Biso   1.000  C 
  C30      1.0000 0.38904  0.15256  0.00022  Biso   1.000  C 
  C31      1.0000 0.09032  0.37298  0.03088  Biso   1.000  C 
  C32      1.0000 0.39093  0.87282  0.40900  Biso   1.000  C 
  C33      1.0000 0.76662  0.30149  0.54349  Biso   1.000  C 
  C34      1.0000 0.76491  0.70693  0.18049  Biso   1.000  C 
  C35      1.0000 0.91316  0.44086  0.57407  Biso   1.000  C 
  C36      1.0000 0.26494  0.20711  0.18068  Biso   1.000  C 
  C37      1.0000 0.81164  0.67329  0.17086  Biso   1.000  C 
  C38      1.0000 0.08862  0.67916  0.63406  Biso   1.000  C 
  C39      1.0000 0.31167  0.17345  0.17102  Biso   1.000  C 
  C40      1.0000 0.83992  0.69093  0.00911  Biso   1.000  C 
  C41      1.0000 0.33993  0.19103  0.00920  Biso   1.000  C 
  C42      1.0000 0.81904  0.74356  0.86023  Biso   1.000  C 
  C43      1.0000 0.62337  0.16848  0.48872  Biso   1.000  C 
  C44      1.0000 0.12338  0.66842  0.48862  Biso   1.000  C 
  C45      1.0000 0.60118  0.10038  0.32329  Biso   1.000  C 
  C46      1.0000 0.10119  0.60034  0.32315  Biso   1.000  C 
  C47      1.0000 0.31905  0.24363  0.86027  Biso   1.000  C 
  C48      1.0000 0.74945  0.83356  0.71559  Biso   1.000  C 
  C49      1.0000 0.58863  0.17922  0.63420  Biso   1.000  C 
  C50      1.0000 0.77123  0.77954  0.86649  Biso   1.000  C 
  C51      1.0000 0.24947  0.33364  0.71562  Biso   1.000  C 
  C52      1.0000 0.84260  0.32708  0.39306  Biso   1.000  C 
  C53      1.0000 0.34263  0.82704  0.39333  Biso   1.000  C 
  C54      1.0000 0.42563  0.86204  0.26328  Biso   1.000  C 
  C55      1.0000 0.92560  0.36204  0.26297  Biso   1.000  C 
  C56      1.0000 0.70273  0.86722  0.72532  Biso   1.000  C 
  C57      1.0000 0.89091  0.37283  0.40871  Biso   1.000  C 
  C58      1.0000 0.67446  0.84974  0.88725  Biso   1.000  C 
  C59      1.0000 0.19537  0.29723  0.03625  Biso   1.000  C 
  C60      1.0000 0.69534  0.79708  0.03612  Biso   1.000  C 
  C61      1.0000 0.27124  0.27963  0.86654  Biso   1.000  C 
  C62      1.0000 0.24317  0.26119  0.02989  Biso   1.000  C 
  C63      1.0000 0.74315  0.76104  0.02975  Biso   1.000  C 
  C64      1.0000 0.17448  0.34985  0.88733  Biso   1.000  C 
  Co1      1.0000 0.00710  0.48992  0.18764  Biso   1.000  Co
  Co2      1.0000 0.50725  0.05108  0.70963  Biso   1.000  Co
  Co3      1.0000 0.00725  0.55103  0.70942  Biso   1.000  Co
  Co4      1.0000 0.50710  0.98996  0.18781  Biso   1.000  Co
  H1       1.0000 0.39994  0.97128  0.72122  Biso   1.000  H 
  H2       1.0000 0.68703  0.90820  0.60670  Biso   1.000  H 
  H3       1.0000 0.32735  0.13241  0.28957  Biso   1.000  H 
  H4       1.0000 0.42413  0.81795  0.11009  Biso   1.000  H 
  H5       1.0000 0.92408  0.31798  0.10974  Biso   1.000  H 
  H6       1.0000 0.11448  0.57002  0.17634  Biso   1.000  H 
  H7       1.0000 0.61447  0.07005  0.17648  Biso   1.000  H 
  H8       1.0000 0.09007  0.72328  0.78717  Biso   1.000  H 
  H9       1.0000 0.74397  0.69248  0.30559  Biso   1.000  H 
  H10      1.0000 0.89845  0.55537  0.24515  Biso   1.000  H 
  H11      1.0000 0.67500  0.78306  0.16347  Biso   1.000  H 
  H12      1.0000 0.27038  0.34797  0.59032  Biso   1.000  H 
  H13      1.0000 0.77037  0.84791  0.59032  Biso   1.000  H 
  H14      1.0000 0.33940  0.25765  0.73292  Biso   1.000  H 
  H15      1.0000 0.83940  0.75763  0.73294  Biso   1.000  H 
  H16      1.0000 0.24400  0.19269  0.30582  Biso   1.000  H 
  H17      1.0000 0.59008  0.22338  0.78729  Biso   1.000  H 
  H18      1.0000 0.18705  0.40829  0.60675  Biso   1.000  H 
  H19      1.0000 0.09196  0.32898  0.15331  Biso   1.000  H 
  H20      1.0000 0.17502  0.28322  0.16362  Biso   1.000  H 
  H21      1.0000 0.76340  0.17697  0.04268  Biso   1.000  H 
  H22      1.0000 0.34513  0.75221  0.07477  Biso   1.000  H 
  H23      1.0000 0.16922  0.78894  0.82328  Biso   1.000  H 
  H24      1.0000 0.89995  0.47123  0.72101  Biso   1.000  H 
  H25      1.0000 0.39843  0.05542  0.24521  Biso   1.000  H 
  H26      1.0000 0.92250  0.71206  0.74351  Biso   1.000  H 
  H27      1.0000 0.42254  0.21218  0.74377  Biso   1.000  H 
  H28      1.0000 0.61595  0.98543  0.65131  Biso   1.000  H 
  H29      1.0000 0.11596  0.48547  0.65127  Biso   1.000  H 
  H30      1.0000 0.59196  0.82896  0.15343  Biso   1.000  H 
  H31      1.0000 0.84509  0.25220  0.07454  Biso   1.000  H 
  H32      1.0000 0.32740  0.89020  0.70346  Biso   1.000  H 
  H33      1.0000 0.82738  0.39030  0.70317  Biso   1.000  H 
  H34      1.0000 0.82731  0.63222  0.28935  Biso   1.000  H 
  H35      1.0000 0.25096  0.86399  0.85557  Biso   1.000  H 
  H36      1.0000 0.75096  0.36410  0.85540  Biso   1.000  H 
  H37      1.0000 0.18697  0.65098  0.19462  Biso   1.000  H 
  H38      1.0000 0.68694  0.15099  0.19463  Biso   1.000  H 
  H39      1.0000 0.66922  0.28904  0.82325  Biso   1.000  H 
  H40      1.0000 0.26344  0.67698  0.04279  Biso   1.000  H 
  N1       1.0000 0.05794  0.47440  0.83493  Biso   1.000  N 
  N2       1.0000 0.95649  0.56660  0.06186  Biso   1.000  N 
  N3       1.0000 0.45649  0.06666  0.06203  Biso   1.000  N 
  N4       1.0000 0.96430  0.61639  0.90454  Biso   1.000  N 
  N5       1.0000 0.55795  0.97443  0.83511  Biso   1.000  N 
  N6       1.0000 0.55702  0.07317  0.36826  Biso   1.000  N 
  N7       1.0000 0.46432  0.11647  0.90477  Biso   1.000  N 
  N8       1.0000 0.46523  0.91928  0.33710  Biso   1.000  N 
  N9       1.0000 0.45731  0.96807  0.52911  Biso   1.000  N 
  N10      1.0000 0.95731  0.46800  0.52888  Biso   1.000  N 
  N11      1.0000 0.96522  0.41924  0.33683  Biso   1.000  N 
  N12      1.0000 0.54904  0.12194  0.56023  Biso   1.000  N 
  N13      1.0000 0.04904  0.62188  0.56004  Biso   1.000  N 
  N14      1.0000 0.05702  0.57312  0.36807  Biso   1.000  N 
  N15      1.0000 0.05016  0.42469  0.99245  Biso   1.000  N 
  N16      1.0000 0.55017  0.92473  0.99264  Biso   1.000  N 
