data_image0
_cell_length_a       6.92692
_cell_length_b       7.26269
_cell_length_c       34.609
_cell_angle_alpha    89.9033
_cell_angle_beta     105.76
_cell_angle_gamma    90.0184

_symmetry_space_group_name_H-M    "P 1"
_symmetry_int_tables_number       1

loop_
  _symmetry_equiv_pos_as_xyz
  'x, y, z'

loop_
  _atom_site_label
  _atom_site_occupancy
  _atom_site_fract_x
  _atom_site_fract_y
  _atom_site_fract_z
  _atom_site_thermal_displace_type
  _atom_site_B_iso_or_equiv
  _atom_site_type_symbol
  C1       1.0000 0.25317  0.28666  0.56066  Biso   1.000  C 
  C2       1.0000 0.63531  0.25750  0.38862  Biso   1.000  C 
  C3       1.0000 0.55275  0.39552  0.06805  Biso   1.000  C 
  C4       1.0000 0.01490  0.66775  0.90995  Biso   1.000  C 
  C5       1.0000 0.20216  0.89773  0.82716  Biso   1.000  C 
  C6       1.0000 0.09300  0.77694  0.84508  Biso   1.000  C 
  C7       1.0000 0.95342  0.65928  0.81947  Biso   1.000  C 
  C8       1.0000 0.93015  0.65763  0.77831  Biso   1.000  C 
  C9       1.0000 0.04371  0.77414  0.76031  Biso   1.000  C 
  C10      1.0000 0.82011  0.27800  0.92010  Biso   1.000  C 
  C11      1.0000 0.63769  0.30260  0.89027  Biso   1.000  C 
  C12      1.0000 0.51695  0.39690  0.91060  Biso   1.000  C 
  C13      1.0000 0.54729  0.26824  0.76210  Biso   1.000  C 
  C14      1.0000 0.40581  0.35381  0.77879  Biso   1.000  C 
  C15      1.0000 0.43038  0.35778  0.81998  Biso   1.000  C 
  C16      1.0000 0.51593  0.16810  0.40996  Biso   1.000  C 
  C17      1.0000 0.73348  0.18068  0.83030  Biso   1.000  C 
  C18      1.0000 0.43590  0.25721  0.59010  Biso   1.000  C 
  C19      1.0000 0.52688  0.27430  0.71844  Biso   1.000  C 
  C20      1.0000 0.75184  0.78549  0.06070  Biso   1.000  C 
  C21      1.0000 0.83677  0.68089  0.64852  Biso   1.000  C 
  C22      1.0000 0.05403  0.89680  0.56813  Biso   1.000  C 
  C23      1.0000 0.47744  0.27683  0.63367  Biso   1.000  C 
  C24      1.0000 0.36817  0.39755  0.65149  Biso   1.000  C 
  C25      1.0000 0.39273  0.39644  0.69275  Biso   1.000  C 
  C26      1.0000 0.86025  0.67924  0.68972  Biso   1.000  C 
  C27      1.0000 0.59730  0.27441  0.84695  Biso   1.000  C 
  C28      1.0000 0.97359  0.77372  0.63182  Biso   1.000  C 
  C29      1.0000 0.70985  0.17882  0.78910  Biso   1.000  C 
  C30      1.0000 0.16537  0.85258  0.69993  Biso   1.000  C 
  C31      1.0000 0.02327  0.76801  0.71666  Biso   1.000  C 
  C32      1.0000 0.17772  0.89644  0.78589  Biso   1.000  C 
  C33      1.0000 0.93341  0.80211  0.58850  Biso   1.000  C 
  C34      1.0000 0.55539  0.16741  0.56889  Biso   1.000  C 
  C35      1.0000 0.75092  0.77783  0.55869  Biso   1.000  C 
  C36      1.0000 0.47252  0.27260  0.13174  Biso   1.000  C 
  C37      1.0000 0.14095  0.85634  0.65874  Biso   1.000  C 
  C38      1.0000 0.05399  0.66616  0.06893  Biso   1.000  C 
  C39      1.0000 0.13455  0.75729  0.88867  Biso   1.000  C 
  C40      1.0000 0.31746  0.78607  0.91806  Biso   1.000  C 
  C41      1.0000 0.67736  0.39631  0.28576  Biso   1.000  C 
  C42      1.0000 0.70218  0.39769  0.32704  Biso   1.000  C 
  C43      1.0000 0.59336  0.27689  0.34502  Biso   1.000  C 
  C44      1.0000 0.45365  0.15914  0.31947  Biso   1.000  C 
  C45      1.0000 0.32102  0.77847  0.42022  Biso   1.000  C 
  C46      1.0000 0.13849  0.80282  0.39040  Biso   1.000  C 
  C47      1.0000 0.01783  0.89726  0.41073  Biso   1.000  C 
  C48      1.0000 0.04717  0.76759  0.26221  Biso   1.000  C 
  C49      1.0000 0.90576  0.85310  0.27893  Biso   1.000  C 
  C50      1.0000 0.64064  0.15790  0.70054  Biso   1.000  C 
  C51      1.0000 0.61723  0.15938  0.65938  Biso   1.000  C 
  C52      1.0000 0.24955  0.27680  0.05862  Biso   1.000  C 
  C53      1.0000 0.21002  0.67845  0.28920  Biso   1.000  C 
  C54      1.0000 0.02635  0.77343  0.21853  Biso   1.000  C 
  C55      1.0000 0.93454  0.75604  0.09014  Biso   1.000  C 
  C56      1.0000 0.11636  0.65854  0.15942  Biso   1.000  C 
  C57      1.0000 0.23398  0.68058  0.33041  Biso   1.000  C 
  C58      1.0000 0.86714  0.89649  0.15157  Biso   1.000  C 
  C59      1.0000 0.09788  0.77429  0.34709  Biso   1.000  C 
  C60      1.0000 0.43007  0.15734  0.27831  Biso   1.000  C 
  C61      1.0000 0.54341  0.27377  0.26025  Biso   1.000  C 
  C62      1.0000 0.35947  0.17859  0.18970  Biso   1.000  C 
  C63      1.0000 0.33573  0.18002  0.14849  Biso   1.000  C 
  C64      1.0000 0.93071  0.85737  0.32013  Biso   1.000  C 
  C65      1.0000 0.64016  0.35505  0.15862  Biso   1.000  C 
  C66      1.0000 0.66483  0.35156  0.19982  Biso   1.000  C 
  C67      1.0000 0.52272  0.26732  0.21659  Biso   1.000  C 
  C68      1.0000 0.81834  0.28658  0.41796  Biso   1.000  C 
  C69      1.0000 0.97630  0.77580  0.13372  Biso   1.000  C 
  C70      1.0000 0.89197  0.89546  0.19285  Biso   1.000  C 
  C71      1.0000 0.43213  0.30093  0.08842  Biso   1.000  C 
  C72      1.0000 0.14003  0.65708  0.20059  Biso   1.000  C 
  Co1      1.0000 0.03460  0.50027  0.98943  Biso   1.000  Co
  Co2      1.0000 0.53589  0.00110  0.48945  Biso   1.000  Co
  Co3      1.0000 0.53476  0.57412  0.98934  Biso   1.000  Co
  Co4      1.0000 0.03597  0.07529  0.48938  Biso   1.000  Co
  H1       1.0000 0.86374  0.94361  0.39966  Biso   1.000  H 
  H2       1.0000 0.80874  0.49429  0.34549  Biso   1.000  H 
  H3       1.0000 0.79739  0.41757  0.21913  Biso   1.000  H 
  H4       1.0000 0.70976  0.12113  0.57949  Biso   1.000  H 
  H5       1.0000 0.36144  0.12215  0.39946  Biso   1.000  H 
  H6       1.0000 0.80475  0.99323  0.20503  Biso   1.000  H 
  H7       1.0000 0.77357  0.91964  0.25956  Biso   1.000  H 
  H8       1.0000 0.24536  0.55884  0.21876  Biso   1.000  H 
  H9       1.0000 0.32436  0.60912  0.27827  Biso   1.000  H 
  H10      1.0000 0.76026  0.99276  0.13301  Biso   1.000  H 
  H11      1.0000 0.46058  0.71680  0.41807  Biso   1.000  H 
  H12      1.0000 0.81991  0.93102  0.33137  Biso   1.000  H 
  H13      1.0000 0.24475  0.11014  0.20070  Biso   1.000  H 
  H14      1.0000 0.11432  0.34651  0.56370  Biso   1.000  H 
  H15      1.0000 0.32514  0.05871  0.26026  Biso   1.000  H 
  H16      1.0000 0.36743  0.06157  0.33208  Biso   1.000  H 
  H17      1.0000 0.75163  0.42751  0.14731  Biso   1.000  H 
  H18      1.0000 0.20529  0.11123  0.12905  Biso   1.000  H 
  H19      1.0000 0.29778  0.91868  0.71929  Biso   1.000  H 
  H20      1.0000 0.20292  0.56108  0.14694  Biso   1.000  H 
  H21      1.0000 0.36412  0.61141  0.34993  Biso   1.000  H 
  H22      1.0000 0.10999  0.21510  0.06081  Biso   1.000  H 
  H23      1.0000 0.70684  0.44186  0.07908  Biso   1.000  H 
  H24      1.0000 0.26499  0.99413  0.77364  Biso   1.000  H 
  H25      1.0000 0.31953  0.43154  0.83119  Biso   1.000  H 
  H26      1.0000 0.45651  0.84545  0.91497  Biso   1.000  H 
  H27      1.0000 0.30534  0.49408  0.70491  Biso   1.000  H 
  H28      1.0000 0.20805  0.94335  0.57918  Biso   1.000  H 
  H29      1.0000 0.74575  0.05955  0.71872  Biso   1.000  H 
  H30      1.0000 0.74549  0.61052  0.70067  Biso   1.000  H 
  H31      1.0000 0.20834  0.61981  0.07952  Biso   1.000  H 
  H32      1.0000 0.30875  0.99417  0.84566  Biso   1.000  H 
  H33      1.0000 0.86707  0.56166  0.83202  Biso   1.000  H 
  H34      1.0000 0.70647  0.61206  0.62903  Biso   1.000  H 
  H35      1.0000 0.25234  0.92920  0.64748  Biso   1.000  H 
  H36      1.0000 0.61143  0.71596  0.56086  Biso   1.000  H 
  H37      1.0000 0.76419  0.49417  0.27344  Biso   1.000  H 
  H38      1.0000 0.61299  0.84534  0.06375  Biso   1.000  H 
  H39      1.0000 0.27392  0.42069  0.75940  Biso   1.000  H 
  H40      1.0000 0.95722  0.34599  0.41479  Biso   1.000  H 
  H41      1.0000 0.82524  0.55909  0.76022  Biso   1.000  H 
  H42      1.0000 0.82421  0.10946  0.77819  Biso   1.000  H 
  H43      1.0000 0.36288  0.44330  0.89953  Biso   1.000  H 
  H44      1.0000 0.26139  0.49384  0.63290  Biso   1.000  H 
  H45      1.0000 0.86339  0.11128  0.84983  Biso   1.000  H 
  H46      1.0000 0.95973  0.21633  0.91798  Biso   1.000  H 
  H47      1.0000 0.86034  0.62203  0.89939  Biso   1.000  H 
  H48      1.0000 0.70370  0.06171  0.64692  Biso   1.000  H 
  N1       1.0000 0.12313  0.93212  0.44894  Biso   1.000  N 
  N2       1.0000 0.26104  0.21276  0.52523  Biso   1.000  N 
  N3       1.0000 0.31177  0.85896  0.45489  Biso   1.000  N 
  N4       1.0000 0.25874  0.35757  0.02392  Biso   1.000  N 
  N5       1.0000 0.12099  0.63969  0.94843  Biso   1.000  N 
  N6       1.0000 0.44742  0.43063  0.02983  Biso   1.000  N 
  N7       1.0000 0.94803  0.63863  0.03044  Biso   1.000  N 
  N8       1.0000 0.94874  0.93182  0.52990  Biso   1.000  N 
  N9       1.0000 0.44941  0.13986  0.53041  Biso   1.000  N 
  N10      1.0000 0.81070  0.35821  0.95479  Biso   1.000  N 
  N11      1.0000 0.62224  0.14037  0.44844  Biso   1.000  N 
  N12      1.0000 0.81075  0.21279  0.45347  Biso   1.000  N 
  N13      1.0000 0.62208  0.43143  0.94884  Biso   1.000  N 
  N14      1.0000 0.75967  0.71159  0.02526  Biso   1.000  N 
  N15      1.0000 0.76013  0.85858  0.52398  Biso   1.000  N 
  N16      1.0000 0.30959  0.71200  0.95353  Biso   1.000  N 
