data_image0
_cell_length_a       6.85788
_cell_length_b       6.86335
_cell_length_c       34.7895
_cell_angle_alpha    89.8695
_cell_angle_beta     107.75
_cell_angle_gamma    90.0091

_symmetry_space_group_name_H-M    "P 1"
_symmetry_int_tables_number       1

loop_
  _symmetry_equiv_pos_as_xyz
  'x, y, z'

loop_
  _atom_site_label
  _atom_site_occupancy
  _atom_site_fract_x
  _atom_site_fract_y
  _atom_site_fract_z
  _atom_site_thermal_displace_type
  _atom_site_B_iso_or_equiv
  _atom_site_type_symbol
  C1       1.0000 0.26196  0.29979  0.55940  Biso   1.000  C 
  C2       1.0000 0.62340  0.26507  0.38869  Biso   1.000  C 
  C3       1.0000 0.56622  0.38918  0.06936  Biso   1.000  C 
  C4       1.0000 0.00222  0.66864  0.90907  Biso   1.000  C 
  C5       1.0000 0.21181  0.89715  0.82911  Biso   1.000  C 
  C6       1.0000 0.08350  0.78480  0.84512  Biso   1.000  C 
  C7       1.0000 0.92953  0.67439  0.81778  Biso   1.000  C 
  C8       1.0000 0.91038  0.67178  0.77686  Biso   1.000  C 
  C9       1.0000 0.04319  0.77886  0.76082  Biso   1.000  C 
  C10      1.0000 0.80935  0.25812  0.92007  Biso   1.000  C 
  C11      1.0000 0.62425  0.29234  0.88924  Biso   1.000  C 
  C12      1.0000 0.50349  0.39156  0.90920  Biso   1.000  C 
  C13      1.0000 0.54403  0.27107  0.76135  Biso   1.000  C 
  C14      1.0000 0.40476  0.37102  0.77686  Biso   1.000  C 
  C15      1.0000 0.42495  0.37162  0.81784  Biso   1.000  C 
  C16      1.0000 0.50340  0.16750  0.40909  Biso   1.000  C 
  C17      1.0000 0.72037  0.16448  0.83029  Biso   1.000  C 
  C18      1.0000 0.44753  0.26445  0.59003  Biso   1.000  C 
  C19      1.0000 0.52708  0.27844  0.71792  Biso   1.000  C 
  C20      1.0000 0.76096  0.79928  0.05949  Biso   1.000  C 
  C21      1.0000 0.84916  0.66472  0.64861  Biso   1.000  C 
  C22      1.0000 0.06725  0.88943  0.56949  Biso   1.000  C 
  C23      1.0000 0.48641  0.28324  0.63357  Biso   1.000  C 
  C24      1.0000 0.35696  0.39461  0.64941  Biso   1.000  C 
  C25      1.0000 0.37620  0.39180  0.69033  Biso   1.000  C 
  C26      1.0000 0.86855  0.66643  0.68954  Biso   1.000  C 
  C27      1.0000 0.58575  0.27059  0.84576  Biso   1.000  C 
  C28      1.0000 0.98508  0.76880  0.63306  Biso   1.000  C 
  C29      1.0000 0.70084  0.16543  0.78935  Biso   1.000  C 
  C30      1.0000 0.16721  0.86827  0.70185  Biso   1.000  C 
  C31      1.0000 0.02654  0.77069  0.71742  Biso   1.000  C 
  C32      1.0000 0.19263  0.89391  0.78818  Biso   1.000  C 
  C33      1.0000 0.94655  0.79036  0.58956  Biso   1.000  C 
  C34      1.0000 0.56787  0.16726  0.56971  Biso   1.000  C 
  C35      1.0000 0.76124  0.75676  0.55880  Biso   1.000  C 
  C36      1.0000 0.48435  0.26842  0.13295  Biso   1.000  C 
  C37      1.0000 0.14708  0.86826  0.66089  Biso   1.000  C 
  C38      1.0000 0.06684  0.66689  0.06971  Biso   1.000  C 
  C39      1.0000 0.12240  0.76617  0.88869  Biso   1.000  C 
  C40      1.0000 0.30789  0.80136  0.91929  Biso   1.000  C 
  C41      1.0000 0.69282  0.39314  0.28812  Biso   1.000  C 
  C42      1.0000 0.71233  0.39627  0.32906  Biso   1.000  C 
  C43      1.0000 0.58429  0.28376  0.34511  Biso   1.000  C 
  C44      1.0000 0.43022  0.17336  0.31779  Biso   1.000  C 
  C45      1.0000 0.31049  0.75715  0.42019  Biso   1.000  C 
  C46      1.0000 0.12522  0.79107  0.38938  Biso   1.000  C 
  C47      1.0000 0.00454  0.89034  0.40935  Biso   1.000  C 
  C48      1.0000 0.04439  0.77020  0.26147  Biso   1.000  C 
  C49      1.0000 0.90514  0.86989  0.27702  Biso   1.000  C 
  C50      1.0000 0.66094  0.17232  0.70205  Biso   1.000  C 
  C51      1.0000 0.64158  0.17426  0.66111  Biso   1.000  C 
  C52      1.0000 0.26014  0.25674  0.05872  Biso   1.000  C 
  C53      1.0000 0.20143  0.66465  0.28943  Biso   1.000  C 
  C54      1.0000 0.02721  0.77770  0.21802  Biso   1.000  C 
  C55      1.0000 0.94664  0.76388  0.09008  Biso   1.000  C 
  C56      1.0000 0.14109  0.67353  0.16112  Biso   1.000  C 
  C57      1.0000 0.22115  0.66348  0.33038  Biso   1.000  C 
  C58      1.0000 0.85667  0.89405  0.14953  Biso   1.000  C 
  C59      1.0000 0.08650  0.76932  0.34589  Biso   1.000  C 
  C60      1.0000 0.41079  0.17083  0.27685  Biso   1.000  C 
  C61      1.0000 0.54334  0.27806  0.26077  Biso   1.000  C 
  C62      1.0000 0.36820  0.16594  0.18948  Biso   1.000  C 
  C63      1.0000 0.34854  0.16434  0.14854  Biso   1.000  C 
  C64      1.0000 0.92552  0.87029  0.31800  Biso   1.000  C 
  C65      1.0000 0.64650  0.36777  0.16077  Biso   1.000  C 
  C66      1.0000 0.66690  0.36764  0.20175  Biso   1.000  C 
  C67      1.0000 0.52636  0.27004  0.21736  Biso   1.000  C 
  C68      1.0000 0.80891  0.30049  0.41928  Biso   1.000  C 
  C69      1.0000 0.98584  0.78260  0.13364  Biso   1.000  C 
  C70      1.0000 0.87629  0.89120  0.19048  Biso   1.000  C 
  C71      1.0000 0.44562  0.29013  0.08945  Biso   1.000  C 
  C72      1.0000 0.16082  0.67153  0.20209  Biso   1.000  C 
  Co1      1.0000 0.03456  0.49114  0.98938  Biso   1.000  Co
  Co2      1.0000 0.53561  0.99077  0.48946  Biso   1.000  Co
  Co3      1.0000 0.53432  0.57090  0.98934  Biso   1.000  Co
  Co4      1.0000 0.03569  0.07050  0.48941  Biso   1.000  Co
  H1       1.0000 0.84847  0.94321  0.39756  Biso   1.000  H 
  H2       1.0000 0.83122  0.48684  0.34892  Biso   1.000  H 
  H3       1.0000 0.79464  0.44791  0.22172  Biso   1.000  H 
  H4       1.0000 0.72410  0.11458  0.58129  Biso   1.000  H 
  H5       1.0000 0.34727  0.11468  0.39755  Biso   1.000  H 
  H6       1.0000 0.77029  0.97963  0.20073  Biso   1.000  H 
  H7       1.0000 0.77850  0.95175  0.25702  Biso   1.000  H 
  H8       1.0000 0.28130  0.58159  0.22171  Biso   1.000  H 
  H9       1.0000 0.31353  0.58301  0.27957  Biso   1.000  H 
  H10      1.0000 0.73674  0.98348  0.12952  Biso   1.000  H 
  H11      1.0000 0.45114  0.68984  0.41855  Biso   1.000  H 
  H12      1.0000 0.81660  0.95477  0.32834  Biso   1.000  H 
  H13      1.0000 0.25510  0.08593  0.19940  Biso   1.000  H 
  H14      1.0000 0.12148  0.36611  0.56138  Biso   1.000  H 
  H15      1.0000 0.29155  0.07955  0.25739  Biso   1.000  H 
  H16      1.0000 0.32737  0.08282  0.32867  Biso   1.000  H 
  H17      1.0000 0.75644  0.45067  0.15035  Biso   1.000  H 
  H18      1.0000 0.22241  0.08300  0.12826  Biso   1.000  H 
  H19      1.0000 0.29482  0.94864  0.72184  Biso   1.000  H 
  H20      1.0000 0.24482  0.58373  0.15039  Biso   1.000  H 
  H21      1.0000 0.34639  0.58099  0.35073  Biso   1.000  H 
  H22      1.0000 0.11953  0.18966  0.06046  Biso   1.000  H 
  H23      1.0000 0.72235  0.44172  0.08108  Biso   1.000  H 
  H24      1.0000 0.29760  0.98331  0.77778  Biso   1.000  H 
  H25      1.0000 0.31601  0.45625  0.82816  Biso   1.000  H 
  H26      1.0000 0.44820  0.86792  0.91726  Biso   1.000  H 
  H27      1.0000 0.26999  0.48015  0.70054  Biso   1.000  H 
  H28      1.0000 0.22333  0.94212  0.58124  Biso   1.000  H 
  H29      1.0000 0.78140  0.08250  0.72171  Biso   1.000  H 
  H30      1.0000 0.75537  0.58642  0.69944  Biso   1.000  H 
  H31      1.0000 0.22309  0.61418  0.08125  Biso   1.000  H 
  H32      1.0000 0.33067  0.98767  0.84899  Biso   1.000  H 
  H33      1.0000 0.82655  0.58395  0.82864  Biso   1.000  H 
  H34      1.0000 0.72316  0.58330  0.62831  Biso   1.000  H 
  H35      1.0000 0.25707  0.95118  0.65049  Biso   1.000  H 
  H36      1.0000 0.62061  0.68958  0.56050  Biso   1.000  H 
  H37      1.0000 0.79758  0.48270  0.27769  Biso   1.000  H 
  H38      1.0000 0.62052  0.86552  0.06151  Biso   1.000  H 
  H39      1.0000 0.27822  0.45288  0.75683  Biso   1.000  H 
  H40      1.0000 0.94915  0.36716  0.41723  Biso   1.000  H 
  H41      1.0000 0.79116  0.58055  0.75737  Biso   1.000  H 
  H42      1.0000 0.81283  0.08345  0.77953  Biso   1.000  H 
  H43      1.0000 0.34749  0.44460  0.89738  Biso   1.000  H 
  H44      1.0000 0.23707  0.48391  0.62935  Biso   1.000  H 
  H45      1.0000 0.84537  0.08182  0.85067  Biso   1.000  H 
  H46      1.0000 0.95000  0.19071  0.91846  Biso   1.000  H 
  H47      1.0000 0.84604  0.61597  0.89751  Biso   1.000  H 
  H48      1.0000 0.74551  0.08450  0.65041  Biso   1.000  H 
  N1       1.0000 0.11313  0.92007  0.44836  Biso   1.000  N 
  N2       1.0000 0.26834  0.22112  0.52420  Biso   1.000  N 
  N3       1.0000 0.30356  0.83835  0.45512  Biso   1.000  N 
  N4       1.0000 0.26683  0.33806  0.02371  Biso   1.000  N 
  N5       1.0000 0.11131  0.64100  0.94815  Biso   1.000  N 
  N6       1.0000 0.45735  0.41931  0.03035  Biso   1.000  N 
  N7       1.0000 0.95767  0.63981  0.03064  Biso   1.000  N 
  N8       1.0000 0.95858  0.91937  0.53046  Biso   1.000  N 
  N9       1.0000 0.45883  0.13994  0.53064  Biso   1.000  N 
  N10      1.0000 0.80225  0.33911  0.95501  Biso   1.000  N 
  N11      1.0000 0.61254  0.14006  0.44818  Biso   1.000  N 
  N12      1.0000 0.80285  0.22147  0.45454  Biso   1.000  N 
  N13      1.0000 0.61186  0.42097  0.94823  Biso   1.000  N 
  N14      1.0000 0.76717  0.72090  0.02425  Biso   1.000  N 
  N15      1.0000 0.76810  0.83796  0.52379  Biso   1.000  N 
  N16      1.0000 0.30169  0.72227  0.95454  Biso   1.000  N 
