data_image0
_cell_length_a       6.48026
_cell_length_b       17.6537
_cell_length_c       30.1764
_cell_angle_alpha    89.9729
_cell_angle_beta     92.6755
_cell_angle_gamma    90.1817

_symmetry_space_group_name_H-M    "P 1"
_symmetry_int_tables_number       1

loop_
  _symmetry_equiv_pos_as_xyz
  'x, y, z'

loop_
  _atom_site_label
  _atom_site_occupancy
  _atom_site_fract_x
  _atom_site_fract_y
  _atom_site_fract_z
  _atom_site_thermal_displace_type
  _atom_site_B_iso_or_equiv
  _atom_site_type_symbol
  C1       1.0000 0.21686  0.15236  0.56171  Biso   1.000  C 
  C2       1.0000 0.38726  0.14510  0.59218  Biso   1.000  C 
  C3       1.0000 0.50964  0.08936  0.57297  Biso   1.000  C 
  C4       1.0000 0.24285  0.76996  0.78590  Biso   1.000  C 
  C5       1.0000 0.28593  0.73335  0.82607  Biso   1.000  C 
  C6       1.0000 0.14058  0.68458  0.84450  Biso   1.000  C 
  C7       1.0000 0.95012  0.67451  0.82075  Biso   1.000  C 
  C8       1.0000 0.90783  0.71078  0.78049  Biso   1.000  C 
  C9       1.0000 0.05330  0.75939  0.76196  Biso   1.000  C 
  C10      1.0000 0.85890  0.40141  0.91542  Biso   1.000  C 
  C11      1.0000 0.68713  0.40777  0.88539  Biso   1.000  C 
  C12      1.0000 0.55971  0.46082  0.90544  Biso   1.000  C 
  C13      1.0000 0.56078  0.29675  0.75985  Biso   1.000  C 
  C14      1.0000 0.40192  0.31316  0.78857  Biso   1.000  C 
  C15      1.0000 0.44361  0.34870  0.82910  Biso   1.000  C 
  C16      1.0000 0.56047  0.08938  0.40577  Biso   1.000  C 
  C17      1.0000 0.80550  0.35293  0.81440  Biso   1.000  C 
  C18      1.0000 0.64623  0.36937  0.84297  Biso   1.000  C 
  C19      1.0000 0.51665  0.25894  0.71687  Biso   1.000  C 
  C20      1.0000 0.21132  0.40155  0.06341  Biso   1.000  C 
  C21      1.0000 0.76415  0.85265  0.66438  Biso   1.000  C 
  C22      1.0000 0.62051  0.17473  0.65799  Biso   1.000  C 
  C23      1.0000 0.43028  0.18447  0.63417  Biso   1.000  C 
  C24      1.0000 0.28457  0.23270  0.65263  Biso   1.000  C 
  C25      1.0000 0.32720  0.26914  0.69289  Biso   1.000  C 
  C26      1.0000 0.80628  0.81722  0.70496  Biso   1.000  C 
  C27      1.0000 0.12624  0.85009  0.64988  Biso   1.000  C 
  C28      1.0000 0.92346  0.86995  0.63592  Biso   1.000  C 
  C29      1.0000 0.76340  0.31752  0.77381  Biso   1.000  C 
  C30      1.0000 0.16797  0.81454  0.69039  Biso   1.000  C 
  C31      1.0000 0.00904  0.79729  0.71902  Biso   1.000  C 
  C32      1.0000 0.01009  0.96148  0.57336  Biso   1.000  C 
  C33      1.0000 0.88240  0.90831  0.59351  Biso   1.000  C 
  C34      1.0000 0.71792  0.65235  0.06165  Biso   1.000  C 
  C35      1.0000 0.71039  0.90169  0.56352  Biso   1.000  C 
  C36      1.0000 0.06134  0.58922  0.90572  Biso   1.000  C 
  C37      1.0000 0.66237  0.21084  0.69832  Biso   1.000  C 
  C38      1.0000 0.01055  0.58928  0.07294  Biso   1.000  C 
  C39      1.0000 0.18408  0.64506  0.88642  Biso   1.000  C 
  C40      1.0000 0.35516  0.65234  0.91675  Biso   1.000  C 
  C41      1.0000 0.74262  0.27013  0.28599  Biso   1.000  C 
  C42      1.0000 0.78545  0.23355  0.32619  Biso   1.000  C 
  C43      1.0000 0.64002  0.18476  0.34458  Biso   1.000  C 
  C44      1.0000 0.44969  0.17470  0.32077  Biso   1.000  C 
  C45      1.0000 0.35830  0.90144  0.41546  Biso   1.000  C 
  C46      1.0000 0.18651  0.90771  0.38542  Biso   1.000  C 
  C47      1.0000 0.05893  0.96072  0.40547  Biso   1.000  C 
  C48      1.0000 0.06100  0.79658  0.25988  Biso   1.000  C 
  C49      1.0000 0.90200  0.81284  0.28859  Biso   1.000  C 
  C50      1.0000 0.14585  0.86928  0.34300  Biso   1.000  C 
  C51      1.0000 0.30527  0.85296  0.31446  Biso   1.000  C 
  C52      1.0000 0.88822  0.64503  0.09215  Biso   1.000  C 
  C53      1.0000 0.26345  0.81753  0.27385  Biso   1.000  C 
  C54      1.0000 0.01712  0.75876  0.21689  Biso   1.000  C 
  C55      1.0000 0.94338  0.84842  0.32913  Biso   1.000  C 
  C56      1.0000 0.12146  0.67475  0.15797  Biso   1.000  C 
  C57      1.0000 0.16314  0.71082  0.19832  Biso   1.000  C 
  C58      1.0000 0.78516  0.73244  0.15265  Biso   1.000  C 
  C59      1.0000 0.93115  0.68438  0.13416  Biso   1.000  C 
  C60      1.0000 0.40766  0.21093  0.28049  Biso   1.000  C 
  C61      1.0000 0.55324  0.25952  0.26199  Biso   1.000  C 
  C62      1.0000 0.30656  0.31733  0.20492  Biso   1.000  C 
  C63      1.0000 0.26461  0.35269  0.16431  Biso   1.000  C 
  C64      1.0000 0.82761  0.76886  0.19292  Biso   1.000  C 
  C65      1.0000 0.62674  0.34998  0.14986  Biso   1.000  C 
  C66      1.0000 0.66828  0.31449  0.19040  Biso   1.000  C 
  C67      1.0000 0.50923  0.29736  0.21902  Biso   1.000  C 
  C68      1.0000 0.85450  0.15235  0.41681  Biso   1.000  C 
  C69      1.0000 0.68335  0.14520  0.38649  Biso   1.000  C 
  C70      1.0000 0.51084  0.46143  0.07332  Biso   1.000  C 
  C71      1.0000 0.38317  0.40820  0.09343  Biso   1.000  C 
  C72      1.0000 0.42404  0.36987  0.13586  Biso   1.000  C 
  Co1      1.0000 0.53471  0.00094  0.48938  Biso   1.000  Co
  Co2      1.0000 0.03562  0.50088  0.98936  Biso   1.000  Co
  Co3      1.0000 0.03511  0.04974  0.48930  Biso   1.000  Co
  Co4      1.0000 0.53605  0.54982  0.98927  Biso   1.000  Co
  H1       1.0000 0.07424  0.36631  0.06516  Biso   1.000  H 
  H2       1.0000 0.65906  0.48457  0.08502  Biso   1.000  H 
  H3       1.0000 0.08138  0.18822  0.56285  Biso   1.000  H 
  H4       1.0000 0.65618  0.06525  0.58467  Biso   1.000  H 
  H5       1.0000 0.41327  0.06530  0.39421  Biso   1.000  H 
  H6       1.0000 0.71269  0.80718  0.20566  Biso   1.000  H 
  H7       1.0000 0.74416  0.79522  0.27957  Biso   1.000  H 
  H8       1.0000 0.31044  0.70030  0.21621  Biso   1.000  H 
  H9       1.0000 0.38937  0.80767  0.25182  Biso   1.000  H 
  H10      1.0000 0.63596  0.74170  0.13526  Biso   1.000  H 
  H11      1.0000 0.93458  0.24323  0.34360  Biso   1.000  H 
  H12      1.0000 0.81788  0.85881  0.35121  Biso   1.000  H 
  H13      1.0000 0.91077  0.98354  0.39374  Biso   1.000  H 
  H14      1.0000 0.49526  0.86643  0.41374  Biso   1.000  H 
  H15      1.0000 0.35729  0.80884  0.77323  Biso   1.000  H 
  H16      1.0000 0.32610  0.79772  0.69948  Biso   1.000  H 
  H17      1.0000 0.75237  0.36106  0.12787  Biso   1.000  H 
  H18      1.0000 0.10666  0.36945  0.15494  Biso   1.000  H 
  H19      1.0000 0.33289  0.13711  0.33373  Biso   1.000  H 
  H20      1.0000 0.18047  0.30675  0.22685  Biso   1.000  H 
  H21      1.0000 0.46303  0.87049  0.32373  Biso   1.000  H 
  H22      1.0000 0.26042  0.20002  0.26260  Biso   1.000  H 
  H23      1.0000 0.23861  0.63772  0.14492  Biso   1.000  H 
  H24      1.0000 0.82635  0.29765  0.19953  Biso   1.000  H 
  H25      1.0000 0.21256  0.30761  0.70561  Biso   1.000  H 
  H26      1.0000 0.76046  0.69990  0.76264  Biso   1.000  H 
  H27      1.0000 0.99060  0.18819  0.41555  Biso   1.000  H 
  H28      1.0000 0.49111  0.68826  0.91549  Biso   1.000  H 
  H29      1.0000 0.85715  0.30900  0.27334  Biso   1.000  H 
  H30      1.0000 0.68027  0.80654  0.72690  Biso   1.000  H 
  H31      1.0000 0.15700  0.56512  0.08465  Biso   1.000  H 
  H32      1.0000 0.43517  0.74299  0.84343  Biso   1.000  H 
  H33      1.0000 0.83338  0.63694  0.83374  Biso   1.000  H 
  H34      1.0000 0.60614  0.86938  0.65504  Biso   1.000  H 
  H35      1.0000 0.25178  0.86126  0.62787  Biso   1.000  H 
  H36      1.0000 0.57320  0.86652  0.56534  Biso   1.000  H 
  H37      1.0000 0.91422  0.56507  0.89417  Biso   1.000  H 
  H38      1.0000 0.58252  0.68826  0.06279  Biso   1.000  H 
  H39      1.0000 0.15842  0.98457  0.58502  Biso   1.000  H 
  H40      1.0000 0.99572  0.36634  0.91371  Biso   1.000  H 
  H41      1.0000 0.31825  0.35918  0.85121  Biso   1.000  H 
  H42      1.0000 0.96337  0.37032  0.82367  Biso   1.000  H 
  H43      1.0000 0.41162  0.48370  0.89371  Biso   1.000  H 
  H44      1.0000 0.13543  0.24208  0.63524  Biso   1.000  H 
  H45      1.0000 0.88921  0.30751  0.75177  Biso   1.000  H 
  H46      1.0000 0.80961  0.20023  0.71622  Biso   1.000  H 
  H47      1.0000 0.24397  0.29567  0.77956  Biso   1.000  H 
  H48      1.0000 0.73746  0.13759  0.64496  Biso   1.000  H 
  N1       1.0000 0.73915  0.60492  0.02705  Biso   1.000  N 
  N2       1.0000 0.42057  0.48452  0.03444  Biso   1.000  N 
  N3       1.0000 0.83316  0.10479  0.45140  Biso   1.000  N 
  N4       1.0000 0.14926  0.98406  0.44432  Biso   1.000  N 
  N5       1.0000 0.33308  0.94694  0.45081  Biso   1.000  N 
  N6       1.0000 0.91956  0.56584  0.03424  Biso   1.000  N 
  N7       1.0000 0.65186  0.06578  0.44437  Biso   1.000  N 
  N8       1.0000 0.23659  0.44706  0.02801  Biso   1.000  N 
  N9       1.0000 0.73561  0.94715  0.52810  Biso   1.000  N 
  N10      1.0000 0.91968  0.98456  0.53449  Biso   1.000  N 
  N11      1.0000 0.65009  0.48411  0.94430  Biso   1.000  N 
  N12      1.0000 0.41861  0.06589  0.53428  Biso   1.000  N 
  N13      1.0000 0.23813  0.10493  0.52710  Biso   1.000  N 
  N14      1.0000 0.83382  0.44692  0.95078  Biso   1.000  N 
  N15      1.0000 0.15274  0.56573  0.94434  Biso   1.000  N 
  N16      1.0000 0.33391  0.60483  0.95137  Biso   1.000  N 
