data_image0
_cell_length_a       6.45482
_cell_length_b       19.5011
_cell_length_c       28.9875
_cell_angle_alpha    89.9861
_cell_angle_beta     91.7946
_cell_angle_gamma    90.0381

_symmetry_space_group_name_H-M    "P 1"
_symmetry_int_tables_number       1

loop_
  _symmetry_equiv_pos_as_xyz
  'x, y, z'

loop_
  _atom_site_label
  _atom_site_occupancy
  _atom_site_fract_x
  _atom_site_fract_y
  _atom_site_fract_z
  _atom_site_thermal_displace_type
  _atom_site_B_iso_or_equiv
  _atom_site_type_symbol
  C1       1.0000 0.21518  0.14502  0.56218  Biso   1.000  C 
  C2       1.0000 0.38665  0.14098  0.59341  Biso   1.000  C 
  C3       1.0000 0.50908  0.08855  0.57499  Biso   1.000  C 
  C4       1.0000 0.24435  0.76437  0.78621  Biso   1.000  C 
  C5       1.0000 0.28713  0.72681  0.82615  Biso   1.000  C 
  C6       1.0000 0.14098  0.68070  0.84355  Biso   1.000  C 
  C7       1.0000 0.95022  0.67420  0.81898  Biso   1.000  C 
  C8       1.0000 0.90818  0.71151  0.77893  Biso   1.000  C 
  C9       1.0000 0.05434  0.75755  0.76146  Biso   1.000  C 
  C10      1.0000 0.85999  0.40981  0.91492  Biso   1.000  C 
  C11      1.0000 0.68665  0.41281  0.88431  Biso   1.000  C 
  C12      1.0000 0.55909  0.46285  0.90373  Biso   1.000  C 
  C13      1.0000 0.56031  0.29730  0.75985  Biso   1.000  C 
  C14      1.0000 0.40080  0.31571  0.78944  Biso   1.000  C 
  C15      1.0000 0.44214  0.35292  0.82957  Biso   1.000  C 
  C16      1.0000 0.56091  0.08860  0.40394  Biso   1.000  C 
  C17      1.0000 0.80498  0.35504  0.81268  Biso   1.000  C 
  C18      1.0000 0.64514  0.37339  0.84215  Biso   1.000  C 
  C19      1.0000 0.51641  0.25789  0.71725  Biso   1.000  C 
  C20      1.0000 0.20998  0.40976  0.06389  Biso   1.000  C 
  C21      1.0000 0.76528  0.85456  0.66604  Biso   1.000  C 
  C22      1.0000 0.62105  0.17474  0.65971  Biso   1.000  C 
  C23      1.0000 0.43008  0.18098  0.63519  Biso   1.000  C 
  C24      1.0000 0.28357  0.22686  0.65264  Biso   1.000  C 
  C25      1.0000 0.32616  0.26445  0.69257  Biso   1.000  C 
  C26      1.0000 0.80726  0.81740  0.70621  Biso   1.000  C 
  C27      1.0000 0.12804  0.85269  0.64912  Biso   1.000  C 
  C28      1.0000 0.92501  0.87306  0.63657  Biso   1.000  C 
  C29      1.0000 0.76319  0.31791  0.77251  Biso   1.000  C 
  C30      1.0000 0.16966  0.81547  0.68924  Biso   1.000  C 
  C31      1.0000 0.01025  0.79694  0.71886  Biso   1.000  C 
  C32      1.0000 0.01101  0.96271  0.57506  Biso   1.000  C 
  C33      1.0000 0.88343  0.91257  0.59444  Biso   1.000  C 
  C34      1.0000 0.71537  0.64502  0.06218  Biso   1.000  C 
  C35      1.0000 0.70996  0.90970  0.56387  Biso   1.000  C 
  C36      1.0000 0.06107  0.58860  0.90393  Biso   1.000  C 
  C37      1.0000 0.66289  0.21208  0.69974  Biso   1.000  C 
  C38      1.0000 0.00920  0.58852  0.07499  Biso   1.000  C 
  C39      1.0000 0.18423  0.64076  0.88536  Biso   1.000  C 
  C40      1.0000 0.35600  0.64467  0.91653  Biso   1.000  C 
  C41      1.0000 0.74419  0.26443  0.28626  Biso   1.000  C 
  C42      1.0000 0.78692  0.22686  0.32620  Biso   1.000  C 
  C43      1.0000 0.64075  0.18075  0.34360  Biso   1.000  C 
  C44      1.0000 0.45003  0.17426  0.31901  Biso   1.000  C 
  C45      1.0000 0.35985  0.90982  0.41490  Biso   1.000  C 
  C46      1.0000 0.18644  0.91278  0.38432  Biso   1.000  C 
  C47      1.0000 0.05890  0.96282  0.40375  Biso   1.000  C 
  C48      1.0000 0.06013  0.79724  0.25988  Biso   1.000  C 
  C49      1.0000 0.90061  0.81558  0.28949  Biso   1.000  C 
  C50      1.0000 0.14489  0.87334  0.34217  Biso   1.000  C 
  C51      1.0000 0.30473  0.85504  0.31269  Biso   1.000  C 
  C52      1.0000 0.88687  0.64096  0.09340  Biso   1.000  C 
  C53      1.0000 0.26298  0.81790  0.27251  Biso   1.000  C 
  C54      1.0000 0.01628  0.75784  0.21728  Biso   1.000  C 
  C55      1.0000 0.94193  0.85281  0.32962  Biso   1.000  C 
  C56      1.0000 0.12125  0.67477  0.15970  Biso   1.000  C 
  C57      1.0000 0.16294  0.71211  0.19975  Biso   1.000  C 
  C58      1.0000 0.78360  0.72676  0.15265  Biso   1.000  C 
  C59      1.0000 0.93025  0.68096  0.13518  Biso   1.000  C 
  C60      1.0000 0.40802  0.21157  0.27897  Biso   1.000  C 
  C61      1.0000 0.55418  0.25762  0.26151  Biso   1.000  C 
  C62      1.0000 0.30717  0.31753  0.20627  Biso   1.000  C 
  C63      1.0000 0.26520  0.35467  0.16609  Biso   1.000  C 
  C64      1.0000 0.82601  0.76433  0.19260  Biso   1.000  C 
  C65      1.0000 0.62797  0.35274  0.14916  Biso   1.000  C 
  C66      1.0000 0.66953  0.31553  0.18929  Biso   1.000  C 
  C67      1.0000 0.51012  0.29703  0.21891  Biso   1.000  C 
  C68      1.0000 0.85580  0.14469  0.41656  Biso   1.000  C 
  C69      1.0000 0.68404  0.14079  0.38540  Biso   1.000  C 
  C70      1.0000 0.51113  0.46272  0.07506  Biso   1.000  C 
  C71      1.0000 0.38345  0.41262  0.09446  Biso   1.000  C 
  C72      1.0000 0.42495  0.37313  0.13660  Biso   1.000  C 
  Co1      1.0000 0.53474  0.00415  0.48946  Biso   1.000  Co
  Co2      1.0000 0.03481  0.50416  0.98947  Biso   1.000  Co
  Co3      1.0000 0.03521  0.04786  0.48941  Biso   1.000  Co
  Co4      1.0000 0.53532  0.54785  0.98939  Biso   1.000  Co
  H1       1.0000 0.07269  0.37763  0.06492  Biso   1.000  H 
  H2       1.0000 0.66051  0.48236  0.08729  Biso   1.000  H 
  H3       1.0000 0.07950  0.17789  0.56255  Biso   1.000  H 
  H4       1.0000 0.65654  0.06761  0.58730  Biso   1.000  H 
  H5       1.0000 0.41301  0.06785  0.39173  Biso   1.000  H 
  H6       1.0000 0.71063  0.80064  0.20441  Biso   1.000  H 
  H7       1.0000 0.74252  0.79850  0.28163  Biso   1.000  H 
  H8       1.0000 0.31081  0.70458  0.21830  Biso   1.000  H 
  H9       1.0000 0.38926  0.80617  0.24966  Biso   1.000  H 
  H10      1.0000 0.63396  0.73336  0.13466  Biso   1.000  H 
  H11      1.0000 0.93630  0.23377  0.34427  Biso   1.000  H 
  H12      1.0000 0.81602  0.86491  0.35252  Biso   1.000  H 
  H13      1.0000 0.90968  0.98251  0.39152  Biso   1.000  H 
  H14      1.0000 0.49701  0.87769  0.41384  Biso   1.000  H 
  H15      1.0000 0.35926  0.80095  0.77446  Biso   1.000  H 
  H16      1.0000 0.32786  0.79856  0.69709  Biso   1.000  H 
  H17      1.0000 0.75381  0.36499  0.12626  Biso   1.000  H 
  H18      1.0000 0.10716  0.37161  0.15801  Biso   1.000  H 
  H19      1.0000 0.33268  0.13891  0.33121  Biso   1.000  H 
  H20      1.0000 0.18097  0.30567  0.22913  Biso   1.000  H 
  H21      1.0000 0.46269  0.87210  0.32078  Biso   1.000  H 
  H22      1.0000 0.26033  0.20382  0.26037  Biso   1.000  H 
  H23      1.0000 0.23896  0.63965  0.14746  Biso   1.000  H 
  H24      1.0000 0.82771  0.29862  0.19715  Biso   1.000  H 
  H25      1.0000 0.21098  0.30084  0.70437  Biso   1.000  H 
  H26      1.0000 0.76042  0.70376  0.76035  Biso   1.000  H 
  H27      1.0000 0.99210  0.17731  0.41606  Biso   1.000  H 
  H28      1.0000 0.49237  0.67727  0.91601  Biso   1.000  H 
  H29      1.0000 0.85910  0.30101  0.27451  Biso   1.000  H 
  H30      1.0000 0.68105  0.80551  0.72906  Biso   1.000  H 
  H31      1.0000 0.15665  0.56755  0.08728  Biso   1.000  H 
  H32      1.0000 0.43650  0.73373  0.84422  Biso   1.000  H 
  H33      1.0000 0.83288  0.63884  0.83117  Biso   1.000  H 
  H34      1.0000 0.60722  0.87148  0.65796  Biso   1.000  H 
  H35      1.0000 0.25389  0.86499  0.62623  Biso   1.000  H 
  H36      1.0000 0.57265  0.87757  0.56489  Biso   1.000  H 
  H37      1.0000 0.91322  0.56781  0.89172  Biso   1.000  H 
  H38      1.0000 0.57975  0.67791  0.06256  Biso   1.000  H 
  H39      1.0000 0.16035  0.98238  0.58728  Biso   1.000  H 
  H40      1.0000 0.99721  0.37770  0.91386  Biso   1.000  H 
  H41      1.0000 0.31622  0.36510  0.85246  Biso   1.000  H 
  H42      1.0000 0.96298  0.37205  0.82079  Biso   1.000  H 
  H43      1.0000 0.40988  0.48255  0.89149  Biso   1.000  H 
  H44      1.0000 0.13396  0.23352  0.63464  Biso   1.000  H 
  H45      1.0000 0.88947  0.30614  0.74966  Biso   1.000  H 
  H46      1.0000 0.81076  0.20452  0.71829  Biso   1.000  H 
  H47      1.0000 0.24269  0.29870  0.78157  Biso   1.000  H 
  H48      1.0000 0.73862  0.13955  0.64748  Biso   1.000  H 
  N1       1.0000 0.73612  0.59892  0.02788  Biso   1.000  N 
  N2       1.0000 0.41930  0.48755  0.03605  Biso   1.000  N 
  N3       1.0000 0.83440  0.09875  0.45094  Biso   1.000  N 
  N4       1.0000 0.15074  0.98751  0.44280  Biso   1.000  N 
  N5       1.0000 0.33536  0.95432  0.45003  Biso   1.000  N 
  N6       1.0000 0.91710  0.56392  0.03600  Biso   1.000  N 
  N7       1.0000 0.65280  0.06398  0.44295  Biso   1.000  N 
  N8       1.0000 0.23452  0.45438  0.02881  Biso   1.000  N 
  N9       1.0000 0.73442  0.95435  0.52880  Biso   1.000  N 
  N10      1.0000 0.91916  0.98754  0.53606  Biso   1.000  N 
  N11      1.0000 0.65086  0.48750  0.94280  Biso   1.000  N 
  N12      1.0000 0.41708  0.06395  0.53599  Biso   1.000  N 
  N13      1.0000 0.23605  0.09894  0.52787  Biso   1.000  N 
  N14      1.0000 0.83546  0.45431  0.95004  Biso   1.000  N 
  N15      1.0000 0.15288  0.56401  0.94295  Biso   1.000  N 
  N16      1.0000 0.33454  0.59876  0.95093  Biso   1.000  N 
