data_image0
_cell_length_a       6.75751
_cell_length_b       10.2176
_cell_length_c       33.7512
_cell_angle_alpha    90.1708
_cell_angle_beta     100.838
_cell_angle_gamma    89.3455

_symmetry_space_group_name_H-M    "P 1"
_symmetry_int_tables_number       1

loop_
  _symmetry_equiv_pos_as_xyz
  'x, y, z'

loop_
  _atom_site_label
  _atom_site_occupancy
  _atom_site_fract_x
  _atom_site_fract_y
  _atom_site_fract_z
  _atom_site_thermal_displace_type
  _atom_site_B_iso_or_equiv
  _atom_site_type_symbol
  C1       1.0000 0.22816  0.21381  0.56062  Biso   1.000  C 
  C2       1.0000 0.53626  0.42539  0.06852  Biso   1.000  C 
  C3       1.0000 0.03545  0.62550  0.91043  Biso   1.000  C 
  C4       1.0000 0.40756  0.19785  0.58923  Biso   1.000  C 
  C5       1.0000 0.26522  0.78704  0.82760  Biso   1.000  C 
  C6       1.0000 0.11892  0.72943  0.84649  Biso   1.000  C 
  C7       1.0000 0.93478  0.69490  0.82180  Biso   1.000  C 
  C8       1.0000 0.90061  0.71417  0.78033  Biso   1.000  C 
  C9       1.0000 0.04829  0.76940  0.76133  Biso   1.000  C 
  C10      1.0000 0.84508  0.33960  0.91865  Biso   1.000  C 
  C11      1.0000 0.66639  0.35407  0.88990  Biso   1.000  C 
  C12      1.0000 0.53748  0.42434  0.91067  Biso   1.000  C 
  C13      1.0000 0.55797  0.28665  0.76161  Biso   1.000  C 
  C14      1.0000 0.40178  0.27480  0.78369  Biso   1.000  C 
  C15      1.0000 0.43680  0.29246  0.82531  Biso   1.000  C 
  C16      1.0000 0.53417  0.12508  0.41030  Biso   1.000  C 
  C17      1.0000 0.78691  0.33281  0.82488  Biso   1.000  C 
  C18      1.0000 0.53370  0.12653  0.56802  Biso   1.000  C 
  C19      1.0000 0.52108  0.26977  0.71742  Biso   1.000  C 
  C20      1.0000 0.03455  0.92529  0.56847  Biso   1.000  C 
  C21      1.0000 0.78472  0.83346  0.65366  Biso   1.000  C 
  C22      1.0000 0.13673  0.79284  0.65379  Biso   1.000  C 
  C23      1.0000 0.44874  0.23021  0.63221  Biso   1.000  C 
  C24      1.0000 0.30162  0.28807  0.65138  Biso   1.000  C 
  C25      1.0000 0.33697  0.30733  0.69294  Biso   1.000  C 
  C26      1.0000 0.81874  0.81555  0.69521  Biso   1.000  C 
  C27      1.0000 0.72975  0.71387  0.06062  Biso   1.000  C 
  C28      1.0000 0.94318  0.82341  0.63202  Biso   1.000  C 
  C29      1.0000 0.75167  0.31523  0.78330  Biso   1.000  C 
  C30      1.0000 0.17050  0.77489  0.69539  Biso   1.000  C 
  C31      1.0000 0.01268  0.78663  0.71716  Biso   1.000  C 
  C32      1.0000 0.62997  0.32285  0.84682  Biso   1.000  C 
  C33      1.0000 0.90745  0.85464  0.58896  Biso   1.000  C 
  C34      1.0000 0.23066  0.80654  0.78607  Biso   1.000  C 
  C35      1.0000 0.73037  0.83955  0.55995  Biso   1.000  C 
  C36      1.0000 0.65849  0.19709  0.38944  Biso   1.000  C 
  C37      1.0000 0.23223  0.33932  0.05987  Biso   1.000  C 
  C38      1.0000 0.03519  0.62636  0.06814  Biso   1.000  C 
  C39      1.0000 0.15969  0.69719  0.88947  Biso   1.000  C 
  C40      1.0000 0.33746  0.71380  0.91834  Biso   1.000  C 
  C41      1.0000 0.73056  0.30654  0.28613  Biso   1.000  C 
  C42      1.0000 0.76468  0.28706  0.32766  Biso   1.000  C 
  C43      1.0000 0.61815  0.22938  0.34647  Biso   1.000  C 
  C44      1.0000 0.43423  0.19480  0.32171  Biso   1.000  C 
  C45      1.0000 0.34297  0.83945  0.41869  Biso   1.000  C 
  C46      1.0000 0.16447  0.85413  0.38990  Biso   1.000  C 
  C47      1.0000 0.03558  0.92454  0.41064  Biso   1.000  C 
  C48      1.0000 0.05781  0.78688  0.26163  Biso   1.000  C 
  C49      1.0000 0.90117  0.77512  0.28359  Biso   1.000  C 
  C50      1.0000 0.90889  0.69780  0.08929  Biso   1.000  C 
  C51      1.0000 0.66951  0.21432  0.69812  Biso   1.000  C 
  C52      1.0000 0.63450  0.19527  0.65663  Biso   1.000  C 
  C53      1.0000 0.25131  0.81537  0.28342  Biso   1.000  C 
  C54      1.0000 0.02143  0.76998  0.21745  Biso   1.000  C 
  C55      1.0000 0.28595  0.83291  0.32500  Biso   1.000  C 
  C56      1.0000 0.13541  0.69544  0.15674  Biso   1.000  C 
  C57      1.0000 0.12856  0.82300  0.34682  Biso   1.000  C 
  C58      1.0000 0.80230  0.78800  0.15137  Biso   1.000  C 
  C59      1.0000 0.93554  0.79275  0.32522  Biso   1.000  C 
  C60      1.0000 0.40049  0.21409  0.28025  Biso   1.000  C 
  C61      1.0000 0.54839  0.26938  0.26132  Biso   1.000  C 
  C62      1.0000 0.31939  0.31556  0.19514  Biso   1.000  C 
  C63      1.0000 0.28571  0.33340  0.15359  Biso   1.000  C 
  C64      1.0000 0.17014  0.71462  0.19822  Biso   1.000  C 
  C65      1.0000 0.63775  0.29254  0.15383  Biso   1.000  C 
  C66      1.0000 0.67119  0.27462  0.19543  Biso   1.000  C 
  C67      1.0000 0.51318  0.28656  0.21715  Biso   1.000  C 
  C68      1.0000 0.83584  0.21400  0.41840  Biso   1.000  C 
  C69      1.0000 0.83738  0.80738  0.19292  Biso   1.000  C 
  C70      1.0000 0.44438  0.32325  0.13200  Biso   1.000  C 
  C71      1.0000 0.40907  0.35453  0.08895  Biso   1.000  C 
  C72      1.0000 0.94970  0.73020  0.13226  Biso   1.000  C 
  Co1      1.0000 0.53495  0.99605  0.48928  Biso   1.000  Co
  Co2      1.0000 0.03667  0.49614  0.98933  Biso   1.000  Co
  Co3      1.0000 0.03373  0.05721  0.48952  Biso   1.000  Co
  Co4      1.0000 0.53576  0.55724  0.98952  Biso   1.000  Co
  H1       1.0000 0.82205  0.24803  0.21135  Biso   1.000  H 
  H2       1.0000 0.88285  0.95977  0.39979  Biso   1.000  H 
  H3       1.0000 0.68735  0.46103  0.07962  Biso   1.000  H 
  H4       1.0000 0.68735  0.09185  0.57797  Biso   1.000  H 
  H5       1.0000 0.38243  0.08954  0.40002  Biso   1.000  H 
  H6       1.0000 0.72040  0.85402  0.20657  Biso   1.000  H 
  H7       1.0000 0.75066  0.74899  0.26783  Biso   1.000  H 
  H8       1.0000 0.31332  0.68190  0.21624  Biso   1.000  H 
  H9       1.0000 0.37501  0.82919  0.26728  Biso   1.000  H 
  H10      1.0000 0.65695  0.81764  0.13355  Biso   1.000  H 
  H11      1.0000 0.19451  0.32950  0.21109  Biso   1.000  H 
  H12      1.0000 0.81142  0.78147  0.34142  Biso   1.000  H 
  H13      1.0000 0.34667  0.85307  0.77260  Biso   1.000  H 
  H14      1.0000 0.25335  0.64905  0.14336  Biso   1.000  H 
  H15      1.0000 0.48417  0.79172  0.41592  Biso   1.000  H 
  H16      1.0000 0.32151  0.74846  0.71127  Biso   1.000  H 
  H17      1.0000 0.13544  0.36162  0.13770  Biso   1.000  H 
  H18      1.0000 0.43581  0.86068  0.34073  Biso   1.000  H 
  H19      1.0000 0.31694  0.14862  0.33485  Biso   1.000  H 
  H20      1.0000 0.25885  0.18152  0.26200  Biso   1.000  H 
  H21      1.0000 0.76296  0.28104  0.13781  Biso   1.000  H 
  H22      1.0000 0.08671  0.26067  0.56363  Biso   1.000  H 
  H23      1.0000 0.09258  0.29119  0.06235  Biso   1.000  H 
  H24      1.0000 0.90862  0.31649  0.34570  Biso   1.000  H 
  H25      1.0000 0.81276  0.18150  0.71609  Biso   1.000  H 
  H26      1.0000 0.97557  0.26162  0.41574  Biso   1.000  H 
  H27      1.0000 0.84679  0.35307  0.27272  Biso   1.000  H 
  H28      1.0000 0.22018  0.35403  0.70662  Biso   1.000  H 
  H29      1.0000 0.18574  0.96083  0.57953  Biso   1.000  H 
  H30      1.0000 0.69398  0.82939  0.71120  Biso   1.000  H 
  H31      1.0000 0.18873  0.59157  0.07817  Biso   1.000  H 
  H32      1.0000 0.40931  0.81649  0.84558  Biso   1.000  H 
  H33      1.0000 0.81762  0.64877  0.83500  Biso   1.000  H 
  H34      1.0000 0.63435  0.86165  0.63781  Biso   1.000  H 
  H35      1.0000 0.26181  0.78150  0.63773  Biso   1.000  H 
  H36      1.0000 0.59068  0.79159  0.56249  Biso   1.000  H 
  H37      1.0000 0.47720  0.76122  0.91558  Biso   1.000  H 
  H38      1.0000 0.58829  0.76082  0.06356  Biso   1.000  H 
  H39      1.0000 0.31298  0.28117  0.84160  Biso   1.000  H 
  H40      1.0000 0.88350  0.59022  0.90022  Biso   1.000  H 
  H41      1.0000 0.98641  0.29205  0.91587  Biso   1.000  H 
  H42      1.0000 0.93688  0.36071  0.84052  Biso   1.000  H 
  H43      1.0000 0.15626  0.31791  0.63360  Biso   1.000  H 
  H44      1.0000 0.75221  0.14881  0.64320  Biso   1.000  H 
  H45      1.0000 0.87503  0.32913  0.76707  Biso   1.000  H 
  H46      1.0000 0.25114  0.24856  0.76802  Biso   1.000  H 
  H47      1.0000 0.75877  0.68168  0.76214  Biso   1.000  H 
  H48      1.0000 0.38465  0.45945  0.89985  Biso   1.000  H 
  N1       1.0000 0.32277  0.89894  0.45360  Biso   1.000  N 
  N2       1.0000 0.25163  0.39893  0.02509  Biso   1.000  N 
  N3       1.0000 0.93680  0.59980  0.03044  Biso   1.000  N 
  N4       1.0000 0.13382  0.59926  0.94821  Biso   1.000  N 
  N5       1.0000 0.43952  0.45292  0.03062  Biso   1.000  N 
  N6       1.0000 0.13275  0.95232  0.44843  Biso   1.000  N 
  N7       1.0000 0.74741  0.65407  0.02561  Biso   1.000  N 
  N8       1.0000 0.74962  0.89900  0.52513  Biso   1.000  N 
  N9       1.0000 0.63476  0.45223  0.94843  Biso   1.000  N 
  N10      1.0000 0.43496  0.09990  0.53034  Biso   1.000  N 
  N11      1.0000 0.82488  0.39905  0.95357  Biso   1.000  N 
  N12      1.0000 0.63213  0.09896  0.44813  Biso   1.000  N 
  N13      1.0000 0.93759  0.95282  0.53060  Biso   1.000  N 
  N14      1.0000 0.81920  0.15411  0.45331  Biso   1.000  N 
  N15      1.0000 0.24552  0.15402  0.52559  Biso   1.000  N 
  N16      1.0000 0.32111  0.65403  0.95329  Biso   1.000  N 
