data_image0
_cell_length_a       6.46922
_cell_length_b       16.5361
_cell_length_c       30.8239
_cell_angle_alpha    89.992
_cell_angle_beta     93.2333
_cell_angle_gamma    90.0792

_symmetry_space_group_name_H-M    "P 1"
_symmetry_int_tables_number       1

loop_
  _symmetry_equiv_pos_as_xyz
  'x, y, z'

loop_
  _atom_site_label
  _atom_site_occupancy
  _atom_site_fract_x
  _atom_site_fract_y
  _atom_site_fract_z
  _atom_site_thermal_displace_type
  _atom_site_B_iso_or_equiv
  _atom_site_type_symbol
  C1       1.0000 0.21809  0.15861  0.56143  Biso   1.000  C 
  C2       1.0000 0.88915  0.64869  0.09158  Biso   1.000  C 
  C3       1.0000 0.30288  0.85228  0.31534  Biso   1.000  C 
  C4       1.0000 0.14351  0.86631  0.34360  Biso   1.000  C 
  C5       1.0000 0.89908  0.81013  0.28854  Biso   1.000  C 
  C6       1.0000 0.05805  0.79621  0.26012  Biso   1.000  C 
  C7       1.0000 0.05709  0.95971  0.40641  Biso   1.000  C 
  C8       1.0000 0.26068  0.81812  0.27457  Biso   1.000  C 
  C9       1.0000 0.18434  0.90405  0.38612  Biso   1.000  C 
  C10      1.0000 0.44909  0.17566  0.32152  Biso   1.000  C 
  C11      1.0000 0.63985  0.18770  0.34500  Biso   1.000  C 
  C12      1.0000 0.78701  0.23726  0.32600  Biso   1.000  C 
  C13      1.0000 0.74527  0.27279  0.28555  Biso   1.000  C 
  C14      1.0000 0.35383  0.65854  0.91718  Biso   1.000  C 
  C15      1.0000 0.18344  0.64870  0.88706  Biso   1.000  C 
  C16      1.0000 0.35613  0.89518  0.41580  Biso   1.000  C 
  C17      1.0000 0.01466  0.75966  0.21693  Biso   1.000  C 
  C18      1.0000 0.94084  0.84446  0.32927  Biso   1.000  C 
  C19      1.0000 0.12204  0.67594  0.15716  Biso   1.000  C 
  C20      1.0000 0.42626  0.36678  0.13528  Biso   1.000  C 
  C21      1.0000 0.38556  0.40436  0.09273  Biso   1.000  C 
  C22      1.0000 0.68221  0.14882  0.38710  Biso   1.000  C 
  C23      1.0000 0.85249  0.15867  0.41724  Biso   1.000  C 
  C24      1.0000 0.51179  0.29680  0.21877  Biso   1.000  C 
  C25      1.0000 0.67099  0.31162  0.19051  Biso   1.000  C 
  C26      1.0000 0.62922  0.34590  0.14978  Biso   1.000  C 
  C27      1.0000 0.82444  0.77170  0.19336  Biso   1.000  C 
  C28      1.0000 0.26669  0.35193  0.16339  Biso   1.000  C 
  C29      1.0000 0.30890  0.31783  0.20417  Biso   1.000  C 
  C30      1.0000 0.55535  0.26020  0.26193  Biso   1.000  C 
  C31      1.0000 0.40820  0.21078  0.28101  Biso   1.000  C 
  C32      1.0000 0.93104  0.68747  0.13374  Biso   1.000  C 
  C33      1.0000 0.78315  0.73635  0.15285  Biso   1.000  C 
  C34      1.0000 0.16252  0.71092  0.19773  Biso   1.000  C 
  C35      1.0000 0.01198  0.59030  0.07208  Biso   1.000  C 
  C36      1.0000 0.66207  0.21089  0.69768  Biso   1.000  C 
  C37      1.0000 0.51290  0.46016  0.07246  Biso   1.000  C 
  C38      1.0000 0.71293  0.89511  0.56300  Biso   1.000  C 
  C39      1.0000 0.44132  0.34463  0.82922  Biso   1.000  C 
  C40      1.0000 0.39925  0.31034  0.78849  Biso   1.000  C 
  C41      1.0000 0.55810  0.29628  0.76006  Biso   1.000  C 
  C42      1.0000 0.55822  0.45966  0.90636  Biso   1.000  C 
  C43      1.0000 0.68529  0.40396  0.88605  Biso   1.000  C 
  C44      1.0000 0.85717  0.39505  0.91571  Biso   1.000  C 
  C45      1.0000 0.55926  0.09038  0.40664  Biso   1.000  C 
  C46      1.0000 0.05547  0.76014  0.76194  Biso   1.000  C 
  C47      1.0000 0.94985  0.67557  0.82157  Biso   1.000  C 
  C48      1.0000 0.14083  0.68759  0.84497  Biso   1.000  C 
  C49      1.0000 0.28779  0.73715  0.82590  Biso   1.000  C 
  C50      1.0000 0.51094  0.09038  0.57207  Biso   1.000  C 
  C51      1.0000 0.38818  0.14876  0.59160  Biso   1.000  C 
  C52      1.0000 0.06050  0.59029  0.90663  Biso   1.000  C 
  C53      1.0000 0.90854  0.71071  0.78108  Biso   1.000  C 
  C54      1.0000 0.80340  0.35208  0.81527  Biso   1.000  C 
  C55      1.0000 0.24562  0.77270  0.78548  Biso   1.000  C 
  C56      1.0000 0.51446  0.25977  0.71687  Biso   1.000  C 
  C57      1.0000 0.64418  0.36624  0.84354  Biso   1.000  C 
  C58      1.0000 0.88431  0.90432  0.59277  Biso   1.000  C 
  C59      1.0000 0.71927  0.65859  0.06137  Biso   1.000  C 
  C60      1.0000 0.01146  0.79673  0.71879  Biso   1.000  C 
  C61      1.0000 0.17041  0.81161  0.69047  Biso   1.000  C 
  C62      1.0000 0.76088  0.31799  0.77450  Biso   1.000  C 
  C63      1.0000 0.92519  0.86669  0.63530  Biso   1.000  C 
  C64      1.0000 0.01164  0.96015  0.57251  Biso   1.000  C 
  C65      1.0000 0.80844  0.81768  0.70424  Biso   1.000  C 
  C66      1.0000 0.32424  0.27194  0.69332  Biso   1.000  C 
  C67      1.0000 0.28272  0.23657  0.65282  Biso   1.000  C 
  C68      1.0000 0.43036  0.18756  0.63373  Biso   1.000  C 
  C69      1.0000 0.21417  0.39512  0.06297  Biso   1.000  C 
  C70      1.0000 0.62134  0.17590  0.65714  Biso   1.000  C 
  C71      1.0000 0.76584  0.85176  0.66346  Biso   1.000  C 
  C72      1.0000 0.12828  0.84588  0.64976  Biso   1.000  C 
  Co1      1.0000 0.53619  0.55166  0.98933  Biso   1.000  Co
  Co2      1.0000 0.03472  0.05171  0.48938  Biso   1.000  Co
  Co3      1.0000 0.53490  0.99868  0.48936  Biso   1.000  Co
  Co4      1.0000 0.03609  0.49863  0.98934  Biso   1.000  Co
  H1       1.0000 0.48975  0.69682  0.91568  Biso   1.000  H 
  H2       1.0000 0.86116  0.31244  0.27236  Biso   1.000  H 
  H3       1.0000 0.98838  0.19698  0.41576  Biso   1.000  H 
  H4       1.0000 0.68259  0.80909  0.72589  Biso   1.000  H 
  H5       1.0000 0.15821  0.56364  0.08360  Biso   1.000  H 
  H6       1.0000 0.43757  0.74823  0.84295  Biso   1.000  H 
  H7       1.0000 0.83190  0.63730  0.83506  Biso   1.000  H 
  H8       1.0000 0.60767  0.86957  0.65370  Biso   1.000  H 
  H9       1.0000 0.25373  0.85515  0.62804  Biso   1.000  H 
  H10      1.0000 0.57613  0.85744  0.56498  Biso   1.000  H 
  H11      1.0000 0.80989  0.19867  0.71522  Biso   1.000  H 
  H12      1.0000 0.58366  0.69692  0.06279  Biso   1.000  H 
  H13      1.0000 0.15931  0.98577  0.58408  Biso   1.000  H 
  H14      1.0000 0.99399  0.35756  0.91367  Biso   1.000  H 
  H15      1.0000 0.31599  0.35330  0.85101  Biso   1.000  H 
  H16      1.0000 0.96128  0.37056  0.82494  Biso   1.000  H 
  H17      1.0000 0.41039  0.48508  0.89486  Biso   1.000  H 
  H18      1.0000 0.13285  0.24728  0.63577  Biso   1.000  H 
  H19      1.0000 0.88651  0.31009  0.75273  Biso   1.000  H 
  H20      1.0000 0.24119  0.29193  0.77901  Biso   1.000  H 
  H21      1.0000 0.73972  0.13801  0.64361  Biso   1.000  H 
  H22      1.0000 0.76073  0.69819  0.76357  Biso   1.000  H 
  H23      1.0000 0.91387  0.56369  0.89521  Biso   1.000  H 
  H24      1.0000 0.20797  0.31116  0.70662  Biso   1.000  H 
  H25      1.0000 0.90926  0.98511  0.39489  Biso   1.000  H 
  H26      1.0000 0.24065  0.63818  0.14363  Biso   1.000  H 
  H27      1.0000 0.07732  0.35748  0.06497  Biso   1.000  H 
  H28      1.0000 0.66058  0.48577  0.08402  Biso   1.000  H 
  H29      1.0000 0.82918  0.29376  0.20012  Biso   1.000  H 
  H30      1.0000 0.65729  0.06376  0.58353  Biso   1.000  H 
  H31      1.0000 0.41268  0.06376  0.39520  Biso   1.000  H 
  H32      1.0000 0.70793  0.81080  0.20667  Biso   1.000  H 
  H33      1.0000 0.74117  0.79152  0.27906  Biso   1.000  H 
  H34      1.0000 0.31042  0.69878  0.21526  Biso   1.000  H 
  H35      1.0000 0.38641  0.81036  0.25281  Biso   1.000  H 
  H36      1.0000 0.63323  0.74697  0.13580  Biso   1.000  H 
  H37      1.0000 0.08246  0.19692  0.56289  Biso   1.000  H 
  H38      1.0000 0.81539  0.85300  0.35105  Biso   1.000  H 
  H39      1.0000 0.93661  0.24837  0.34312  Biso   1.000  H 
  H40      1.0000 0.26055  0.19826  0.26343  Biso   1.000  H 
  H41      1.0000 0.18290  0.30931  0.22580  Biso   1.000  H 
  H42      1.0000 0.33097  0.13740  0.33496  Biso   1.000  H 
  H43      1.0000 0.46064  0.87092  0.32502  Biso   1.000  H 
  H44      1.0000 0.75484  0.35513  0.12811  Biso   1.000  H 
  H45      1.0000 0.32871  0.79380  0.70003  Biso   1.000  H 
  H46      1.0000 0.36139  0.81236  0.77224  Biso   1.000  H 
  H47      1.0000 0.49304  0.85773  0.41377  Biso   1.000  H 
  H48      1.0000 0.10861  0.36982  0.15359  Biso   1.000  H 
  N1       1.0000 0.73804  0.94170  0.52760  Biso   1.000  N 
  N2       1.0000 0.83253  0.44169  0.95109  Biso   1.000  N 
  N3       1.0000 0.23965  0.11002  0.52673  Biso   1.000  N 
  N4       1.0000 0.42026  0.06775  0.53352  Biso   1.000  N 
  N5       1.0000 0.64888  0.48211  0.94500  Biso   1.000  N 
  N6       1.0000 0.92159  0.98237  0.53379  Biso   1.000  N 
  N7       1.0000 0.23930  0.44166  0.02755  Biso   1.000  N 
  N8       1.0000 0.83082  0.11004  0.45194  Biso   1.000  N 
  N9       1.0000 0.92147  0.56769  0.03351  Biso   1.000  N 
  N10      1.0000 0.33127  0.94178  0.45118  Biso   1.000  N 
  N11      1.0000 0.14758  0.98217  0.44507  Biso   1.000  N 
  N12      1.0000 0.42286  0.48233  0.03372  Biso   1.000  N 
  N13      1.0000 0.74096  0.61000  0.02668  Biso   1.000  N 
  N14      1.0000 0.15128  0.56766  0.94516  Biso   1.000  N 
  N15      1.0000 0.64997  0.06773  0.44517  Biso   1.000  N 
  N16      1.0000 0.33218  0.60994  0.95189  Biso   1.000  N 
