data_image0
_cell_length_a       6.87276
_cell_length_b       9.23543
_cell_length_c       34.1193
_cell_angle_alpha    89.8953
_cell_angle_beta     102.775
_cell_angle_gamma    89.503

_symmetry_space_group_name_H-M    "P 1"
_symmetry_int_tables_number       1

loop_
  _symmetry_equiv_pos_as_xyz
  'x, y, z'

loop_
  _atom_site_label
  _atom_site_occupancy
  _atom_site_fract_x
  _atom_site_fract_y
  _atom_site_fract_z
  _atom_site_thermal_displace_type
  _atom_site_B_iso_or_equiv
  _atom_site_type_symbol
  C1       1.0000 0.24094  0.23525  0.56078  Biso   1.000  C 
  C2       1.0000 0.53752  0.42021  0.06803  Biso   1.000  C 
  C3       1.0000 0.02647  0.63769  0.91049  Biso   1.000  C 
  C4       1.0000 0.41945  0.21326  0.58972  Biso   1.000  C 
  C5       1.0000 0.20386  0.84656  0.82827  Biso   1.000  C 
  C6       1.0000 0.10626  0.73920  0.84584  Biso   1.000  C 
  C7       1.0000 0.97479  0.64715  0.81984  Biso   1.000  C 
  C8       1.0000 0.94565  0.65975  0.77836  Biso   1.000  C 
  C9       1.0000 0.04607  0.76523  0.76066  Biso   1.000  C 
  C10      1.0000 0.83096  0.32773  0.91956  Biso   1.000  C 
  C11      1.0000 0.65257  0.34681  0.89032  Biso   1.000  C 
  C12      1.0000 0.52913  0.42435  0.91096  Biso   1.000  C 
  C13      1.0000 0.55440  0.28602  0.76205  Biso   1.000  C 
  C14      1.0000 0.40772  0.34979  0.77970  Biso   1.000  C 
  C15      1.0000 0.43679  0.36485  0.82112  Biso   1.000  C 
  C16      1.0000 0.53015  0.13767  0.41054  Biso   1.000  C 
  C17      1.0000 0.75831  0.24879  0.82971  Biso   1.000  C 
  C18      1.0000 0.54081  0.13554  0.56875  Biso   1.000  C 
  C19      1.0000 0.52579  0.27314  0.71801  Biso   1.000  C 
  C20      1.0000 0.04130  0.92198  0.56823  Biso   1.000  C 
  C21      1.0000 0.80989  0.74951  0.64908  Biso   1.000  C 
  C22      1.0000 0.14096  0.84502  0.65730  Biso   1.000  C 
  C23      1.0000 0.46177  0.24132  0.63298  Biso   1.000  C 
  C24      1.0000 0.37129  0.35512  0.64999  Biso   1.000  C 
  C25      1.0000 0.40287  0.37063  0.69152  Biso   1.000  C 
  C26      1.0000 0.83878  0.73441  0.69055  Biso   1.000  C 
  C27      1.0000 0.73721  0.73351  0.06096  Biso   1.000  C 
  C28      1.0000 0.95883  0.80779  0.63137  Biso   1.000  C 
  C29      1.0000 0.72966  0.23478  0.78824  Biso   1.000  C 
  C30      1.0000 0.16975  0.82959  0.69874  Biso   1.000  C 
  C31      1.0000 0.01834  0.77612  0.71658  Biso   1.000  C 
  C32      1.0000 0.61389  0.31621  0.84724  Biso   1.000  C 
  C33      1.0000 0.91993  0.84157  0.58842  Biso   1.000  C 
  C34      1.0000 0.17419  0.85921  0.78668  Biso   1.000  C 
  C35      1.0000 0.74271  0.82353  0.55896  Biso   1.000  C 
  C36      1.0000 0.65079  0.21273  0.38912  Biso   1.000  C 
  C37      1.0000 0.23868  0.32225  0.05885  Biso   1.000  C 
  C38      1.0000 0.03758  0.63481  0.06870  Biso   1.000  C 
  C39      1.0000 0.14743  0.71327  0.88924  Biso   1.000  C 
  C40      1.0000 0.32553  0.73441  0.91819  Biso   1.000  C 
  C41      1.0000 0.67441  0.35742  0.28626  Biso   1.000  C 
  C42      1.0000 0.70518  0.34537  0.32788  Biso   1.000  C 
  C43      1.0000 0.60872  0.23802  0.34568  Biso   1.000  C 
  C44      1.0000 0.47716  0.14539  0.31989  Biso   1.000  C 
  C45      1.0000 0.33468  0.82797  0.41958  Biso   1.000  C 
  C46      1.0000 0.15585  0.84666  0.39042  Biso   1.000  C 
  C47      1.0000 0.03282  0.92441  0.41110  Biso   1.000  C 
  C48      1.0000 0.05433  0.78461  0.26217  Biso   1.000  C 
  C49      1.0000 0.90786  0.84789  0.27997  Biso   1.000  C 
  C50      1.0000 0.91616  0.71181  0.08980  Biso   1.000  C 
  C51      1.0000 0.61928  0.16117  0.70082  Biso   1.000  C 
  C52      1.0000 0.58838  0.14579  0.65942  Biso   1.000  C 
  C53      1.0000 0.23052  0.73418  0.28821  Biso   1.000  C 
  C54      1.0000 0.02466  0.77155  0.21811  Biso   1.000  C 
  C55      1.0000 0.26020  0.74854  0.32969  Biso   1.000  C 
  C56      1.0000 0.08689  0.64465  0.15941  Biso   1.000  C 
  C57      1.0000 0.11603  0.81557  0.34737  Biso   1.000  C 
  C58      1.0000 0.86799  0.85304  0.15016  Biso   1.000  C 
  C59      1.0000 0.93793  0.86326  0.32139  Biso   1.000  C 
  C60      1.0000 0.44670  0.15752  0.27837  Biso   1.000  C 
  C61      1.0000 0.54616  0.26294  0.26045  Biso   1.000  C 
  C62      1.0000 0.33746  0.23174  0.19046  Biso   1.000  C 
  C63      1.0000 0.30770  0.24702  0.14899  Biso   1.000  C 
  C64      1.0000 0.11853  0.66001  0.20083  Biso   1.000  C 
  C65      1.0000 0.63867  0.34261  0.15695  Biso   1.000  C 
  C66      1.0000 0.66846  0.32690  0.19838  Biso   1.000  C 
  C67      1.0000 0.51749  0.27345  0.21635  Biso   1.000  C 
  C68      1.0000 0.82916  0.23422  0.41796  Biso   1.000  C 
  C69      1.0000 0.90044  0.86856  0.19170  Biso   1.000  C 
  C70      1.0000 0.45608  0.30557  0.13116  Biso   1.000  C 
  C71      1.0000 0.41629  0.33979  0.08824  Biso   1.000  C 
  C72      1.0000 0.95900  0.73975  0.13306  Biso   1.000  C 
  Co1      1.0000 0.53701  0.00100  0.48958  Biso   1.000  Co
  Co2      1.0000 0.03299  0.50023  0.98953  Biso   1.000  Co
  Co3      1.0000 0.03647  0.06632  0.48970  Biso   1.000  Co
  Co4      1.0000 0.53225  0.56542  0.98968  Biso   1.000  Co
  H1       1.0000 0.81210  0.35714  0.21719  Biso   1.000  H 
  H2       1.0000 0.88048  0.96271  0.40055  Biso   1.000  H 
  H3       1.0000 0.68807  0.45958  0.07894  Biso   1.000  H 
  H4       1.0000 0.69365  0.09789  0.57915  Biso   1.000  H 
  H5       1.0000 0.37778  0.10091  0.40037  Biso   1.000  H 
  H6       1.0000 0.82932  0.95901  0.20379  Biso   1.000  H 
  H7       1.0000 0.76710  0.88565  0.26109  Biso   1.000  H 
  H8       1.0000 0.21311  0.58071  0.22005  Biso   1.000  H 
  H9       1.0000 0.34905  0.68562  0.27583  Biso   1.000  H 
  H10      1.0000 0.77116  0.93058  0.13069  Biso   1.000  H 
  H11      1.0000 0.21594  0.19038  0.20302  Biso   1.000  H 
  H12      1.0000 0.82158  0.91591  0.33357  Biso   1.000  H 
  H13      1.0000 0.25058  0.94506  0.77419  Biso   1.000  H 
  H14      1.0000 0.15734  0.55387  0.14730  Biso   1.000  H 
  H15      1.0000 0.47453  0.77732  0.41706  Biso   1.000  H 
  H16      1.0000 0.31315  0.85990  0.71764  Biso   1.000  H 
  H17      1.0000 0.16402  0.21646  0.13022  Biso   1.000  H 
  H18      1.0000 0.40019  0.70952  0.34859  Biso   1.000  H 
  H19      1.0000 0.40266  0.05884  0.33252  Biso   1.000  H 
  H20      1.0000 0.34879  0.08025  0.25962  Biso   1.000  H 
  H21      1.0000 0.75868  0.38757  0.14459  Biso   1.000  H 
  H22      1.0000 0.10191  0.28558  0.56400  Biso   1.000  H 
  H23      1.0000 0.10047  0.26989  0.06096  Biso   1.000  H 
  H24      1.0000 0.80520  0.42093  0.34685  Biso   1.000  H 
  H25      1.0000 0.71294  0.08157  0.72011  Biso   1.000  H 
  H26      1.0000 0.96779  0.28273  0.41447  Biso   1.000  H 
  H27      1.0000 0.74992  0.44325  0.27357  Biso   1.000  H 
  H28      1.0000 0.33183  0.46132  0.70354  Biso   1.000  H 
  H29      1.0000 0.19167  0.96164  0.57917  Biso   1.000  H 
  H30      1.0000 0.71694  0.69299  0.70298  Biso   1.000  H 
  H31      1.0000 0.19072  0.59759  0.07896  Biso   1.000  H 
  H32      1.0000 0.30394  0.92163  0.84742  Biso   1.000  H 
  H33      1.0000 0.89941  0.56064  0.83229  Biso   1.000  H 
  H34      1.0000 0.66648  0.71885  0.63024  Biso   1.000  H 
  H35      1.0000 0.26145  0.88971  0.64504  Biso   1.000  H 
  H36      1.0000 0.60448  0.77111  0.56104  Biso   1.000  H 
  H37      1.0000 0.46426  0.78316  0.91484  Biso   1.000  H 
  H38      1.0000 0.59814  0.78351  0.06427  Biso   1.000  H 
  H39      1.0000 0.32042  0.41804  0.83318  Biso   1.000  H 
  H40      1.0000 0.87414  0.60096  0.90024  Biso   1.000  H 
  H41      1.0000 0.97089  0.27701  0.91710  Biso   1.000  H 
  H42      1.0000 0.89769  0.20914  0.84872  Biso   1.000  H 
  H43      1.0000 0.27553  0.43305  0.63044  Biso   1.000  H 
  H44      1.0000 0.65832  0.05458  0.64738  Biso   1.000  H 
  H45      1.0000 0.84834  0.18580  0.77598  Biso   1.000  H 
  H46      1.0000 0.26764  0.38824  0.76070  Biso   1.000  H 
  H47      1.0000 0.84795  0.58278  0.75946  Biso   1.000  H 
  H48      1.0000 0.37686  0.46273  0.90035  Biso   1.000  H 
  N1       1.0000 0.32051  0.89326  0.45431  Biso   1.000  N 
  N2       1.0000 0.25185  0.39021  0.02440  Biso   1.000  N 
  N3       1.0000 0.93669  0.60983  0.03068  Biso   1.000  N 
  N4       1.0000 0.12698  0.61255  0.94862  Biso   1.000  N 
  N5       1.0000 0.43756  0.45086  0.03021  Biso   1.000  N 
  N6       1.0000 0.13287  0.95296  0.44894  Biso   1.000  N 
  N7       1.0000 0.74967  0.67025  0.02580  Biso   1.000  N 
  N8       1.0000 0.75613  0.89129  0.52449  Biso   1.000  N 
  N9       1.0000 0.62865  0.45245  0.94887  Biso   1.000  N 
  N10      1.0000 0.44032  0.11049  0.53071  Biso   1.000  N 
  N11      1.0000 0.81625  0.39266  0.95430  Biso   1.000  N 
  N12      1.0000 0.63105  0.11313  0.44867  Biso   1.000  N 
  N13      1.0000 0.94170  0.95222  0.53034  Biso   1.000  N 
  N14      1.0000 0.81729  0.17235  0.45337  Biso   1.000  N 
  N15      1.0000 0.25359  0.17151  0.52569  Biso   1.000  N 
  N16      1.0000 0.31323  0.67187  0.95348  Biso   1.000  N 
