data_image0
_cell_length_a       6.1469
_cell_length_b       6.69309
_cell_length_c       34.6438
_cell_angle_alpha    89.9902
_cell_angle_beta     108.069
_cell_angle_gamma    90.0323

_symmetry_space_group_name_H-M    "P 1"
_symmetry_int_tables_number       1

loop_
  _symmetry_equiv_pos_as_xyz
  'x, y, z'

loop_
  _atom_site_label
  _atom_site_occupancy
  _atom_site_fract_x
  _atom_site_fract_y
  _atom_site_fract_z
  _atom_site_thermal_displace_type
  _atom_site_B_iso_or_equiv
  _atom_site_type_symbol
  C1       1.0000 0.27605  0.33308  0.55775  Biso   1.000  C 
  C2       1.0000 0.27507  0.22104  0.05752  Biso   1.000  C 
  C3       1.0000 0.69653  0.22213  0.66339  Biso   1.000  C 
  C4       1.0000 0.71099  0.21767  0.70418  Biso   1.000  C 
  C5       1.0000 0.86043  0.83556  0.27478  Biso   1.000  C 
  C6       1.0000 0.04321  0.77313  0.26117  Biso   1.000  C 
  C7       1.0000 0.97044  0.89101  0.40699  Biso   1.000  C 
  C8       1.0000 0.24228  0.70626  0.29101  Biso   1.000  C 
  C9       1.0000 0.10307  0.77625  0.38853  Biso   1.000  C 
  C10      1.0000 0.37402  0.22163  0.31541  Biso   1.000  C 
  C11      1.0000 0.57374  0.28907  0.34501  Biso   1.000  C 
  C12      1.0000 0.75674  0.35051  0.33158  Biso   1.000  C 
  C13      1.0000 0.74123  0.34657  0.29078  Biso   1.000  C 
  C14      1.0000 0.29465  0.83386  0.92099  Biso   1.000  C 
  C15      1.0000 0.10209  0.77784  0.88837  Biso   1.000  C 
  C16      1.0000 0.29545  0.72083  0.42123  Biso   1.000  C 
  C17      1.0000 0.02815  0.77964  0.21781  Biso   1.000  C 
  C18      1.0000 0.96820  0.77732  0.09044  Biso   1.000  C 
  C19      1.0000 0.19642  0.72195  0.16339  Biso   1.000  C 
  C20      1.0000 0.21096  0.71733  0.20418  Biso   1.000  C 
  C21      1.0000 0.46749  0.27656  0.09022  Biso   1.000  C 
  C22      1.0000 0.99680  0.78931  0.13379  Biso   1.000  C 
  C23      1.0000 0.79515  0.33312  0.42100  Biso   1.000  C 
  C24      1.0000 0.52706  0.27294  0.21760  Biso   1.000  C 
  C25      1.0000 0.71014  0.33509  0.20401  Biso   1.000  C 
  C26      1.0000 0.69572  0.33071  0.16322  Biso   1.000  C 
  C27      1.0000 0.87495  0.83096  0.31558  Biso   1.000  C 
  C28      1.0000 0.31256  0.20287  0.14693  Biso   1.000  C 
  C29      1.0000 0.32781  0.20653  0.18772  Biso   1.000  C 
  C30      1.0000 0.54209  0.27946  0.26096  Biso   1.000  C 
  C31      1.0000 0.35934  0.21700  0.27461  Biso   1.000  C 
  C32      1.0000 0.07457  0.76376  0.34519  Biso   1.000  C 
  C33      1.0000 0.81367  0.85047  0.14719  Biso   1.000  C 
  C34      1.0000 0.25768  0.70251  0.33180  Biso   1.000  C 
  C35      1.0000 0.10041  0.66274  0.07188  Biso   1.000  C 
  C36      1.0000 0.19601  0.83103  0.66329  Biso   1.000  C 
  C37      1.0000 0.82903  0.84648  0.18798  Biso   1.000  C 
  C38      1.0000 0.77564  0.72070  0.55758  Biso   1.000  C 
  C39      1.0000 0.37459  0.33167  0.81552  Biso   1.000  C 
  C40      1.0000 0.36019  0.33615  0.77473  Biso   1.000  C 
  C41      1.0000 0.54299  0.27363  0.76113  Biso   1.000  C 
  C42      1.0000 0.46990  0.39192  0.90696  Biso   1.000  C 
  C43      1.0000 0.60247  0.27706  0.88850  Biso   1.000  C 
  C44      1.0000 0.79477  0.22152  0.92120  Biso   1.000  C 
  C45      1.0000 0.47017  0.16272  0.40696  Biso   1.000  C 
  C46      1.0000 0.04194  0.78012  0.76099  Biso   1.000  C 
  C47      1.0000 0.87366  0.72227  0.81541  Biso   1.000  C 
  C48      1.0000 0.07330  0.78980  0.84500  Biso   1.000  C 
  C49      1.0000 0.25634  0.85133  0.83160  Biso   1.000  C 
  C50      1.0000 0.60002  0.39163  0.07177  Biso   1.000  C 
  C51      1.0000 0.60258  0.27713  0.38837  Biso   1.000  C 
  C52      1.0000 0.49594  0.26390  0.13357  Biso   1.000  C 
  C53      1.0000 0.85912  0.71761  0.77461  Biso   1.000  C 
  C54      1.0000 0.75729  0.20314  0.83179  Biso   1.000  C 
  C55      1.0000 0.96969  0.66341  0.90694  Biso   1.000  C 
  C56      1.0000 0.52810  0.28005  0.71777  Biso   1.000  C 
  C57      1.0000 0.46841  0.27716  0.59041  Biso   1.000  C 
  C58      1.0000 0.96799  0.77642  0.59028  Biso   1.000  C 
  C59      1.0000 0.60077  0.16252  0.57189  Biso   1.000  C 
  C60      1.0000 0.02711  0.77344  0.71763  Biso   1.000  C 
  C61      1.0000 0.21027  0.83556  0.70407  Biso   1.000  C 
  C62      1.0000 0.74199  0.20681  0.79100  Biso   1.000  C 
  C63      1.0000 0.99634  0.76404  0.63363  Biso   1.000  C 
  C64      1.0000 0.24096  0.84737  0.79082  Biso   1.000  C 
  C65      1.0000 0.82796  0.70689  0.68775  Biso   1.000  C 
  C66      1.0000 0.32903  0.34684  0.68792  Biso   1.000  C 
  C67      1.0000 0.31377  0.35067  0.64713  Biso   1.000  C 
  C68      1.0000 0.49695  0.28938  0.63376  Biso   1.000  C 
  C69      1.0000 0.77581  0.83346  0.05781  Biso   1.000  C 
  C70      1.0000 0.10048  0.89141  0.57181  Biso   1.000  C 
  C71      1.0000 0.81286  0.70305  0.64697  Biso   1.000  C 
  C72      1.0000 0.57411  0.26448  0.84516  Biso   1.000  C 
  Co1      1.0000 0.03542  0.08509  0.48937  Biso   1.000  Co
  Co2      1.0000 0.53485  0.58585  0.98938  Biso   1.000  Co
  Co3      1.0000 0.03501  0.47036  0.98940  Biso   1.000  Co
  Co4      1.0000 0.53552  0.96966  0.48942  Biso   1.000  Co
  H1       1.0000 0.26306  0.96540  0.58547  Biso   1.000  H 
  H2       1.0000 0.86875  0.16259  0.72569  Biso   1.000  H 
  H3       1.0000 0.18072  0.39576  0.69621  Biso   1.000  H 
  H4       1.0000 0.67945  0.65818  0.69602  Biso   1.000  H 
  H5       1.0000 0.26289  0.58867  0.08549  Biso   1.000  H 
  H6       1.0000 0.41566  0.90078  0.85359  Biso   1.000  H 
  H7       1.0000 0.72744  0.67117  0.82424  Biso   1.000  H 
  H8       1.0000 0.65338  0.65422  0.62494  Biso   1.000  H 
  H9       1.0000 0.34255  0.88183  0.65452  Biso   1.000  H 
  H10      1.0000 0.62567  0.63399  0.55734  Biso   1.000  H 
  H11      1.0000 0.94473  0.13497  0.92144  Biso   1.000  H 
  H12      1.0000 0.62604  0.92011  0.05764  Biso   1.000  H 
  H13      1.0000 0.20250  0.39142  0.75323  Biso   1.000  H 
  H14      1.0000 0.94501  0.41966  0.42113  Biso   1.000  H 
  H15      1.0000 0.70140  0.66216  0.75312  Biso   1.000  H 
  H16      1.0000 0.89024  0.15777  0.78271  Biso   1.000  H 
  H17      1.0000 0.30739  0.46585  0.89328  Biso   1.000  H 
  H18      1.0000 0.15437  0.39974  0.62513  Biso   1.000  H 
  H19      1.0000 0.91667  0.15408  0.85379  Biso   1.000  H 
  H20      1.0000 0.80702  0.58943  0.89336  Biso   1.000  H 
  H21      1.0000 0.84279  0.17111  0.65458  Biso   1.000  H 
  H22      1.0000 0.44457  0.92033  0.92113  Biso   1.000  H 
  H23      1.0000 0.88942  0.39569  0.28246  Biso   1.000  H 
  H24      1.0000 0.22835  0.38277  0.82432  Biso   1.000  H 
  H25      1.0000 0.17932  0.15781  0.19599  Biso   1.000  H 
  H26      1.0000 0.76268  0.46547  0.08544  Biso   1.000  H 
  H27      1.0000 0.80792  0.96493  0.39331  Biso   1.000  H 
  H28      1.0000 0.91616  0.39989  0.35355  Biso   1.000  H 
  H29      1.0000 0.38914  0.89661  0.78251  Biso   1.000  H 
  H30      1.0000 0.76323  0.08845  0.58554  Biso   1.000  H 
  H31      1.0000 0.30748  0.08879  0.39338  Biso   1.000  H 
  H32      1.0000 0.68075  0.89530  0.19629  Biso   1.000  H 
  H33      1.0000 0.70268  0.89082  0.25329  Biso   1.000  H 
  H34      1.0000 0.36871  0.66216  0.22568  Biso   1.000  H 
  H35      1.0000 0.39049  0.65725  0.28271  Biso   1.000  H 
  H36      1.0000 0.65424  0.89964  0.12521  Biso   1.000  H 
  H37      1.0000 0.86808  0.38993  0.22554  Biso   1.000  H 
  H38      1.0000 0.72875  0.88199  0.32440  Biso   1.000  H 
  H39      1.0000 0.44548  0.63441  0.42147  Biso   1.000  H 
  H40      1.0000 0.12513  0.13431  0.05727  Biso   1.000  H 
  H41      1.0000 0.34265  0.67103  0.15457  Biso   1.000  H 
  H42      1.0000 0.36814  0.89047  0.72560  Biso   1.000  H 
  H43      1.0000 0.41709  0.65348  0.35380  Biso   1.000  H 
  H44      1.0000 0.84220  0.38150  0.15444  Biso   1.000  H 
  H45      1.0000 0.22780  0.17060  0.32425  Biso   1.000  H 
  H46      1.0000 0.20153  0.16164  0.25312  Biso   1.000  H 
  H47      1.0000 0.12621  0.41968  0.55755  Biso   1.000  H 
  H48      1.0000 0.15304  0.15410  0.12491  Biso   1.000  H 
  N1       1.0000 0.48997  0.14429  0.53188  Biso   1.000  N 
  N2       1.0000 0.78887  0.75043  0.02297  Biso   1.000  N 
  N3       1.0000 0.58064  0.41065  0.94696  Biso   1.000  N 
  N4       1.0000 0.78202  0.25016  0.45584  Biso   1.000  N 
  N5       1.0000 0.58116  0.14465  0.44697  Biso   1.000  N 
  N6       1.0000 0.78139  0.30513  0.95596  Biso   1.000  N 
  N7       1.0000 0.98971  0.91006  0.53180  Biso   1.000  N 
  N8       1.0000 0.28201  0.80435  0.45599  Biso   1.000  N 
  N9       1.0000 0.48920  0.41049  0.03177  Biso   1.000  N 
  N10      1.0000 0.08063  0.64538  0.94696  Biso   1.000  N 
  N11      1.0000 0.28841  0.30483  0.02276  Biso   1.000  N 
  N12      1.0000 0.28929  0.24990  0.52294  Biso   1.000  N 
  N13      1.0000 0.08117  0.90976  0.44699  Biso   1.000  N 
  N14      1.0000 0.78898  0.80432  0.52281  Biso   1.000  N 
  N15      1.0000 0.98946  0.64474  0.03187  Biso   1.000  N 
  N16      1.0000 0.28150  0.75091  0.95584  Biso   1.000  N 
