data_image0
_cell_length_a       6.62094
_cell_length_b       23.8154
_cell_length_c       25.7115
_cell_angle_alpha    90.0049
_cell_angle_beta     92.9337
_cell_angle_gamma    89.983

_symmetry_space_group_name_H-M    "P 1"
_symmetry_int_tables_number       1

loop_
  _symmetry_equiv_pos_as_xyz
  'x, y, z'

loop_
  _atom_site_label
  _atom_site_occupancy
  _atom_site_fract_x
  _atom_site_fract_y
  _atom_site_fract_z
  _atom_site_thermal_displace_type
  _atom_site_B_iso_or_equiv
  _atom_site_type_symbol
  C1       1.0000 0.21070  0.12987  0.56319  Biso   1.000  C 
  C2       1.0000 0.38663  0.13537  0.59609  Biso   1.000  C 
  C3       1.0000 0.51237  0.09184  0.57957  Biso   1.000  C 
  C4       1.0000 0.24616  0.75442  0.78746  Biso   1.000  C 
  C5       1.0000 0.28754  0.71550  0.82688  Biso   1.000  C 
  C6       1.0000 0.14103  0.67631  0.84114  Biso   1.000  C 
  C7       1.0000 0.95133  0.67817  0.81377  Biso   1.000  C 
  C8       1.0000 0.91057  0.71691  0.77418  Biso   1.000  C 
  C9       1.0000 0.05692  0.75614  0.75992  Biso   1.000  C 
  C10      1.0000 0.86157  0.42523  0.91445  Biso   1.000  C 
  C11      1.0000 0.68320  0.41846  0.88286  Biso   1.000  C 
  C12      1.0000 0.55502  0.46095  0.90010  Biso   1.000  C 
  C13      1.0000 0.55656  0.29724  0.76081  Biso   1.000  C 
  C14      1.0000 0.40242  0.31797  0.79134  Biso   1.000  C 
  C15      1.0000 0.44341  0.35697  0.83072  Biso   1.000  C 
  C16      1.0000 0.55799  0.09186  0.39911  Biso   1.000  C 
  C17      1.0000 0.79516  0.35639  0.81135  Biso   1.000  C 
  C18      1.0000 0.64068  0.37720  0.84166  Biso   1.000  C 
  C19      1.0000 0.51324  0.25608  0.71882  Biso   1.000  C 
  C20      1.0000 0.20910  0.42560  0.06446  Biso   1.000  C 
  C21      1.0000 0.77532  0.85680  0.66759  Biso   1.000  C 
  C22      1.0000 0.61853  0.17794  0.66510  Biso   1.000  C 
  C23      1.0000 0.42921  0.17633  0.63753  Biso   1.000  C 
  C24      1.0000 0.28309  0.21575  0.65161  Biso   1.000  C 
  C25      1.0000 0.32435  0.25462  0.69109  Biso   1.000  C 
  C26      1.0000 0.81652  0.81773  0.70690  Biso   1.000  C 
  C27      1.0000 0.12701  0.85727  0.64819  Biso   1.000  C 
  C28      1.0000 0.92983  0.87761  0.63731  Biso   1.000  C 
  C29      1.0000 0.75385  0.31743  0.77195  Biso   1.000  C 
  C30      1.0000 0.16787  0.81813  0.68748  Biso   1.000  C 
  C31      1.0000 0.01371  0.79739  0.71799  Biso   1.000  C 
  C32      1.0000 0.01562  0.96132  0.57881  Biso   1.000  C 
  C33      1.0000 0.88738  0.91889  0.59611  Biso   1.000  C 
  C34      1.0000 0.71059  0.62987  0.06320  Biso   1.000  C 
  C35      1.0000 0.70914  0.92559  0.56445  Biso   1.000  C 
  C36      1.0000 0.05794  0.59185  0.89911  Biso   1.000  C 
  C37      1.0000 0.65922  0.21666  0.70472  Biso   1.000  C 
  C38      1.0000 0.01232  0.59185  0.07957  Biso   1.000  C 
  C39      1.0000 0.18368  0.63534  0.88256  Biso   1.000  C 
  C40      1.0000 0.35979  0.62977  0.91539  Biso   1.000  C 
  C41      1.0000 0.74616  0.25445  0.28748  Biso   1.000  C 
  C42      1.0000 0.78756  0.21552  0.32690  Biso   1.000  C 
  C43      1.0000 0.64108  0.17631  0.34114  Biso   1.000  C 
  C44      1.0000 0.45140  0.17816  0.31377  Biso   1.000  C 
  C45      1.0000 0.36159  0.92522  0.41446  Biso   1.000  C 
  C46      1.0000 0.18323  0.91846  0.38287  Biso   1.000  C 
  C47      1.0000 0.05507  0.96096  0.40010  Biso   1.000  C 
  C48      1.0000 0.05652  0.79722  0.26083  Biso   1.000  C 
  C49      1.0000 0.90239  0.81796  0.29136  Biso   1.000  C 
  C50      1.0000 0.14068  0.87718  0.34168  Biso   1.000  C 
  C51      1.0000 0.29515  0.85636  0.31137  Biso   1.000  C 
  C52      1.0000 0.88653  0.63537  0.09610  Biso   1.000  C 
  C53      1.0000 0.25382  0.81741  0.27196  Biso   1.000  C 
  C54      1.0000 0.01318  0.75608  0.21883  Biso   1.000  C 
  C55      1.0000 0.94340  0.85696  0.33074  Biso   1.000  C 
  C56      1.0000 0.11842  0.67793  0.16511  Biso   1.000  C 
  C57      1.0000 0.15915  0.71666  0.20473  Biso   1.000  C 
  C58      1.0000 0.78303  0.71577  0.15161  Biso   1.000  C 
  C59      1.0000 0.92911  0.67634  0.13754  Biso   1.000  C 
  C60      1.0000 0.41062  0.21692  0.27418  Biso   1.000  C 
  C61      1.0000 0.55693  0.25616  0.25994  Biso   1.000  C 
  C62      1.0000 0.31648  0.31773  0.20691  Biso   1.000  C 
  C63      1.0000 0.27528  0.35680  0.16759  Biso   1.000  C 
  C64      1.0000 0.82431  0.75464  0.19109  Biso   1.000  C 
  C65      1.0000 0.62700  0.35732  0.14823  Biso   1.000  C 
  C66      1.0000 0.66787  0.31820  0.18753  Biso   1.000  C 
  C67      1.0000 0.51370  0.29742  0.21801  Biso   1.000  C 
  C68      1.0000 0.85986  0.12977  0.41539  Biso   1.000  C 
  C69      1.0000 0.68374  0.13534  0.38257  Biso   1.000  C 
  C70      1.0000 0.51554  0.46135  0.07883  Biso   1.000  C 
  C71      1.0000 0.38732  0.41892  0.09613  Biso   1.000  C 
  C72      1.0000 0.42979  0.37764  0.13733  Biso   1.000  C 
  Co1      1.0000 0.53534  0.01319  0.48930  Biso   1.000  Co
  Co2      1.0000 0.03528  0.51319  0.98930  Biso   1.000  Co
  Co3      1.0000 0.03541  0.04116  0.48931  Biso   1.000  Co
  Co4      1.0000 0.53532  0.54117  0.98932  Biso   1.000  Co
  H1       1.0000 0.06963  0.40154  0.06362  Biso   1.000  H 
  H2       1.0000 0.66830  0.47257  0.09243  Biso   1.000  H 
  H3       1.0000 0.07159  0.15412  0.56179  Biso   1.000  H 
  H4       1.0000 0.66397  0.07976  0.59339  Biso   1.000  H 
  H5       1.0000 0.40635  0.07981  0.38535  Biso   1.000  H 
  H6       1.0000 0.70880  0.78542  0.19985  Biso   1.000  H 
  H7       1.0000 0.74867  0.80200  0.28509  Biso   1.000  H 
  H8       1.0000 0.30622  0.71549  0.22588  Biso   1.000  H 
  H9       1.0000 0.37616  0.80343  0.24822  Biso   1.000  H 
  H10      1.0000 0.63465  0.71642  0.13110  Biso   1.000  H 
  H11      1.0000 0.93630  0.21594  0.34722  Biso   1.000  H 
  H12      1.0000 0.82138  0.87115  0.35454  Biso   1.000  H 
  H13      1.0000 0.90226  0.97215  0.38650  Biso   1.000  H 
  H14      1.0000 0.50112  0.90116  0.41532  Biso   1.000  H 
  H15      1.0000 0.36203  0.78502  0.77858  Biso   1.000  H 
  H16      1.0000 0.32153  0.80208  0.69365  Biso   1.000  H 
  H17      1.0000 0.74902  0.37149  0.12446  Biso   1.000  H 
  H18      1.0000 0.12158  0.37279  0.16109  Biso   1.000  H 
  H19      1.0000 0.33377  0.14831  0.32322  Biso   1.000  H 
  H20      1.0000 0.19405  0.30376  0.23062  Biso   1.000  H 
  H21      1.0000 0.44887  0.87229  0.31791  Biso   1.000  H 
  H22      1.0000 0.26323  0.21593  0.25318  Biso   1.000  H 
  H23      1.0000 0.23581  0.64794  0.15579  Biso   1.000  H 
  H24      1.0000 0.82155  0.30215  0.19372  Biso   1.000  H 
  H25      1.0000 0.20881  0.28540  0.69985  Biso   1.000  H 
  H26      1.0000 0.76318  0.71593  0.75319  Biso   1.000  H 
  H27      1.0000 0.99901  0.15397  0.41675  Biso   1.000  H 
  H28      1.0000 0.49894  0.65398  0.91677  Biso   1.000  H 
  H29      1.0000 0.86202  0.28506  0.27861  Biso   1.000  H 
  H30      1.0000 0.69410  0.80378  0.73063  Biso   1.000  H 
  H31      1.0000 0.16393  0.57978  0.09338  Biso   1.000  H 
  H32      1.0000 0.43629  0.71592  0.84720  Biso   1.000  H 
  H33      1.0000 0.83367  0.64833  0.82324  Biso   1.000  H 
  H34      1.0000 0.62165  0.87281  0.66109  Biso   1.000  H 
  H35      1.0000 0.24901  0.87142  0.62440  Biso   1.000  H 
  H36      1.0000 0.56963  0.90155  0.56361  Biso   1.000  H 
  H37      1.0000 0.90630  0.57980  0.88534  Biso   1.000  H 
  H38      1.0000 0.57146  0.65409  0.06182  Biso   1.000  H 
  H39      1.0000 0.16839  0.97253  0.59241  Biso   1.000  H 
  H40      1.0000 0.00111  0.40117  0.91531  Biso   1.000  H 
  H41      1.0000 0.32138  0.37116  0.85451  Biso   1.000  H 
  H42      1.0000 0.94886  0.37233  0.81788  Biso   1.000  H 
  H43      1.0000 0.40220  0.47214  0.88651  Biso   1.000  H 
  H44      1.0000 0.13469  0.21639  0.63111  Biso   1.000  H 
  H45      1.0000 0.87619  0.30346  0.74820  Biso   1.000  H 
  H46      1.0000 0.80630  0.21551  0.72587  Biso   1.000  H 
  H47      1.0000 0.24871  0.30201  0.78507  Biso   1.000  H 
  H48      1.0000 0.73593  0.14796  0.65578  Biso   1.000  H 
  N1       1.0000 0.73177  0.58676  0.02986  Biso   1.000  N 
  N2       1.0000 0.41964  0.49085  0.04007  Biso   1.000  N 
  N3       1.0000 0.83885  0.08664  0.44869  Biso   1.000  N 
  N4       1.0000 0.15110  0.99058  0.43874  Biso   1.000  N 
  N5       1.0000 0.33964  0.96816  0.44799  Biso   1.000  N 
  N6       1.0000 0.91787  0.56315  0.04014  Biso   1.000  N 
  N7       1.0000 0.65267  0.06309  0.43847  Biso   1.000  N 
  N8       1.0000 0.23120  0.46841  0.03082  Biso   1.000  N 
  N9       1.0000 0.73126  0.96840  0.53081  Biso   1.000  N 
  N10      1.0000 0.91972  0.99083  0.54006  Biso   1.000  N 
  N11      1.0000 0.65102  0.49057  0.93874  Biso   1.000  N 
  N12      1.0000 0.41791  0.06314  0.54014  Biso   1.000  N 
  N13      1.0000 0.23184  0.08676  0.52986  Biso   1.000  N 
  N14      1.0000 0.83957  0.46817  0.94798  Biso   1.000  N 
  N15      1.0000 0.15262  0.56308  0.93847  Biso   1.000  N 
  N16      1.0000 0.33878  0.58664  0.94869  Biso   1.000  N 
