data_image0
_cell_length_a       6.7447
_cell_length_b       23.9883
_cell_length_c       25.7388
_cell_angle_alpha    89.9666
_cell_angle_beta     94.9497
_cell_angle_gamma    90.1326

_symmetry_space_group_name_H-M    "P 1"
_symmetry_int_tables_number       1

loop_
  _symmetry_equiv_pos_as_xyz
  'x, y, z'

loop_
  _atom_site_label
  _atom_site_occupancy
  _atom_site_fract_x
  _atom_site_fract_y
  _atom_site_fract_z
  _atom_site_thermal_displace_type
  _atom_site_B_iso_or_equiv
  _atom_site_type_symbol
  C1       1.0000 0.21094  0.12746  0.56382  Biso   1.000  C 
  C2       1.0000 0.38779  0.13487  0.59651  Biso   1.000  C 
  C3       1.0000 0.51493  0.09350  0.57939  Biso   1.000  C 
  C4       1.0000 0.24382  0.75375  0.78798  Biso   1.000  C 
  C5       1.0000 0.28490  0.71490  0.82756  Biso   1.000  C 
  C6       1.0000 0.14042  0.67607  0.84071  Biso   1.000  C 
  C7       1.0000 0.95290  0.67827  0.81209  Biso   1.000  C 
  C8       1.0000 0.91214  0.71709  0.77248  Biso   1.000  C 
  C9       1.0000 0.05651  0.75592  0.75933  Biso   1.000  C 
  C10      1.0000 0.86151  0.42810  0.91420  Biso   1.000  C 
  C11      1.0000 0.68251  0.41922  0.88293  Biso   1.000  C 
  C12      1.0000 0.55360  0.45978  0.90048  Biso   1.000  C 
  C13      1.0000 0.55641  0.29693  0.76152  Biso   1.000  C 
  C14      1.0000 0.40637  0.31654  0.79162  Biso   1.000  C 
  C15      1.0000 0.44716  0.35587  0.83080  Biso   1.000  C 
  C16      1.0000 0.55589  0.09370  0.39955  Biso   1.000  C 
  C17      1.0000 0.79044  0.35797  0.81198  Biso   1.000  C 
  C18      1.0000 0.64011  0.37766  0.84189  Biso   1.000  C 
  C19      1.0000 0.51322  0.25552  0.71963  Biso   1.000  C 
  C20      1.0000 0.20897  0.42815  0.06453  Biso   1.000  C 
  C21      1.0000 0.77963  0.85816  0.66689  Biso   1.000  C 
  C22      1.0000 0.61694  0.17795  0.66703  Biso   1.000  C 
  C23      1.0000 0.42990  0.17571  0.63817  Biso   1.000  C 
  C24      1.0000 0.28555  0.21446  0.65114  Biso   1.000  C 
  C25      1.0000 0.32632  0.25330  0.69075  Biso   1.000  C 
  C26      1.0000 0.82044  0.81884  0.70609  Biso   1.000  C 
  C27      1.0000 0.12276  0.85616  0.64795  Biso   1.000  C 
  C28      1.0000 0.93005  0.87787  0.63688  Biso   1.000  C 
  C29      1.0000 0.74944  0.31859  0.77285  Biso   1.000  C 
  C30      1.0000 0.16334  0.81690  0.68719  Biso   1.000  C 
  C31      1.0000 0.01332  0.79726  0.71740  Biso   1.000  C 
  C32      1.0000 0.01742  0.95991  0.57804  Biso   1.000  C 
  C33      1.0000 0.88805  0.91935  0.59576  Biso   1.000  C 
  C34      1.0000 0.71090  0.62745  0.06383  Biso   1.000  C 
  C35      1.0000 0.70905  0.92814  0.56452  Biso   1.000  C 
  C36      1.0000 0.05587  0.59369  0.89954  Biso   1.000  C 
  C37      1.0000 0.65740  0.21674  0.70668  Biso   1.000  C 
  C38      1.0000 0.01486  0.59348  0.07940  Biso   1.000  C 
  C39      1.0000 0.18301  0.63516  0.88228  Biso   1.000  C 
  C40      1.0000 0.36056  0.62768  0.91462  Biso   1.000  C 
  C41      1.0000 0.74381  0.25378  0.28800  Biso   1.000  C 
  C42      1.0000 0.78490  0.21492  0.32757  Biso   1.000  C 
  C43      1.0000 0.64044  0.17608  0.34071  Biso   1.000  C 
  C44      1.0000 0.45293  0.17828  0.31209  Biso   1.000  C 
  C45      1.0000 0.36157  0.92810  0.41420  Biso   1.000  C 
  C46      1.0000 0.18256  0.91922  0.38292  Biso   1.000  C 
  C47      1.0000 0.05367  0.95979  0.40047  Biso   1.000  C 
  C48      1.0000 0.05639  0.79692  0.26152  Biso   1.000  C 
  C49      1.0000 0.90636  0.81654  0.29162  Biso   1.000  C 
  C50      1.0000 0.14014  0.87766  0.34189  Biso   1.000  C 
  C51      1.0000 0.29045  0.85797  0.31198  Biso   1.000  C 
  C52      1.0000 0.88774  0.63485  0.09652  Biso   1.000  C 
  C53      1.0000 0.24943  0.81858  0.27285  Biso   1.000  C 
  C54      1.0000 0.01318  0.75550  0.21965  Biso   1.000  C 
  C55      1.0000 0.94717  0.85588  0.33079  Biso   1.000  C 
  C56      1.0000 0.11687  0.67793  0.16705  Biso   1.000  C 
  C57      1.0000 0.15733  0.71671  0.20671  Biso   1.000  C 
  C58      1.0000 0.78551  0.71445  0.15115  Biso   1.000  C 
  C59      1.0000 0.92985  0.67569  0.13819  Biso   1.000  C 
  C60      1.0000 0.41215  0.21710  0.27249  Biso   1.000  C 
  C61      1.0000 0.55650  0.25593  0.25935  Biso   1.000  C 
  C62      1.0000 0.32041  0.31886  0.20611  Biso   1.000  C 
  C63      1.0000 0.27958  0.35817  0.16691  Biso   1.000  C 
  C64      1.0000 0.82629  0.75329  0.19076  Biso   1.000  C 
  C65      1.0000 0.62270  0.35620  0.14798  Biso   1.000  C 
  C66      1.0000 0.66331  0.31694  0.18722  Biso   1.000  C 
  C67      1.0000 0.51330  0.29729  0.21742  Biso   1.000  C 
  C68      1.0000 0.86059  0.12768  0.41462  Biso   1.000  C 
  C69      1.0000 0.68302  0.13517  0.38228  Biso   1.000  C 
  C70      1.0000 0.51732  0.45992  0.07806  Biso   1.000  C 
  C71      1.0000 0.38797  0.41937  0.09578  Biso   1.000  C 
  C72      1.0000 0.42998  0.37789  0.13691  Biso   1.000  C 
  Co1      1.0000 0.53570  0.01563  0.48934  Biso   1.000  Co
  Co2      1.0000 0.03561  0.51563  0.98934  Biso   1.000  Co
  Co3      1.0000 0.03572  0.03963  0.48911  Biso   1.000  Co
  Co4      1.0000 0.53564  0.53963  0.98911  Biso   1.000  Co
  H1       1.0000 0.06809  0.40605  0.06412  Biso   1.000  H 
  H2       1.0000 0.67102  0.46931  0.09136  Biso   1.000  H 
  H3       1.0000 0.07046  0.14963  0.56291  Biso   1.000  H 
  H4       1.0000 0.66760  0.08334  0.59286  Biso   1.000  H 
  H5       1.0000 0.40278  0.08354  0.38636  Biso   1.000  H 
  H6       1.0000 0.71201  0.78351  0.19867  Biso   1.000  H 
  H7       1.0000 0.75623  0.79943  0.28521  Biso   1.000  H 
  H8       1.0000 0.30271  0.71614  0.22884  Biso   1.000  H 
  H9       1.0000 0.36839  0.80549  0.24944  Biso   1.000  H 
  H10      1.0000 0.63904  0.71472  0.12955  Biso   1.000  H 
  H11      1.0000 0.93167  0.21522  0.34901  Biso   1.000  H 
  H12      1.0000 0.82855  0.86906  0.35431  Biso   1.000  H 
  H13      1.0000 0.90014  0.96912  0.38710  Biso   1.000  H 
  H14      1.0000 0.50215  0.90601  0.41474  Biso   1.000  H 
  H15      1.0000 0.35831  0.78399  0.77991  Biso   1.000  H 
  H16      1.0000 0.31330  0.79987  0.69355  Biso   1.000  H 
  H17      1.0000 0.74126  0.36940  0.12438  Biso   1.000  H 
  H18      1.0000 0.12953  0.37516  0.16033  Biso   1.000  H 
  H19      1.0000 0.33701  0.14865  0.32054  Biso   1.000  H 
  H20      1.0000 0.20141  0.30571  0.22957  Biso   1.000  H 
  H21      1.0000 0.44060  0.87507  0.31859  Biso   1.000  H 
  H22      1.0000 0.26636  0.21648  0.25055  Biso   1.000  H 
  H23      1.0000 0.23271  0.64838  0.15875  Biso   1.000  H 
  H24      1.0000 0.81328  0.29991  0.19358  Biso   1.000  H 
  H25      1.0000 0.21201  0.28350  0.69867  Biso   1.000  H 
  H26      1.0000 0.76635  0.71647  0.75055  Biso   1.000  H 
  H27      1.0000 0.00131  0.14988  0.41529  Biso   1.000  H 
  H28      1.0000 0.50127  0.64988  0.91530  Biso   1.000  H 
  H29      1.0000 0.85827  0.28403  0.27994  Biso   1.000  H 
  H30      1.0000 0.70145  0.80571  0.72955  Biso   1.000  H 
  H31      1.0000 0.16752  0.58331  0.09288  Biso   1.000  H 
  H32      1.0000 0.43168  0.71520  0.84900  Biso   1.000  H 
  H33      1.0000 0.83697  0.64865  0.82055  Biso   1.000  H 
  H34      1.0000 0.62962  0.87516  0.66031  Biso   1.000  H 
  H35      1.0000 0.24132  0.86935  0.62434  Biso   1.000  H 
  H36      1.0000 0.56816  0.90604  0.56411  Biso   1.000  H 
  H37      1.0000 0.90276  0.58353  0.88636  Biso   1.000  H 
  H38      1.0000 0.57043  0.64962  0.06293  Biso   1.000  H 
  H39      1.0000 0.17112  0.96929  0.59134  Biso   1.000  H 
  H40      1.0000 0.00209  0.40602  0.91474  Biso   1.000  H 
  H41      1.0000 0.32853  0.36904  0.85432  Biso   1.000  H 
  H42      1.0000 0.94057  0.37508  0.81859  Biso   1.000  H 
  H43      1.0000 0.40007  0.46911  0.88711  Biso   1.000  H 
  H44      1.0000 0.13907  0.21472  0.62954  Biso   1.000  H 
  H45      1.0000 0.86839  0.30551  0.74945  Biso   1.000  H 
  H46      1.0000 0.80277  0.21616  0.72881  Biso   1.000  H 
  H47      1.0000 0.25624  0.29942  0.78521  Biso   1.000  H 
  H48      1.0000 0.73279  0.14841  0.65872  Biso   1.000  H 
  N1       1.0000 0.73258  0.58529  0.03012  Biso   1.000  N 
  N2       1.0000 0.42160  0.49028  0.03945  Biso   1.000  N 
  N3       1.0000 0.83931  0.08538  0.44829  Biso   1.000  N 
  N4       1.0000 0.14966  0.99027  0.43899  Biso   1.000  N 
  N5       1.0000 0.33940  0.97036  0.44782  Biso   1.000  N 
  N6       1.0000 0.92037  0.56419  0.03986  Biso   1.000  N 
  N7       1.0000 0.65106  0.06429  0.43884  Biso   1.000  N 
  N8       1.0000 0.23154  0.47032  0.03077  Biso   1.000  N 
  N9       1.0000 0.73164  0.97032  0.53077  Biso   1.000  N 
  N10      1.0000 0.92170  0.99027  0.53944  Biso   1.000  N 
  N11      1.0000 0.64958  0.49027  0.93901  Biso   1.000  N 
  N12      1.0000 0.42045  0.06421  0.53985  Biso   1.000  N 
  N13      1.0000 0.23265  0.08530  0.53011  Biso   1.000  N 
  N14      1.0000 0.83931  0.47036  0.94782  Biso   1.000  N 
  N15      1.0000 0.15100  0.56429  0.93885  Biso   1.000  N 
  N16      1.0000 0.33923  0.58538  0.94829  Biso   1.000  N 
