data_image0
_cell_length_a       6.45919
_cell_length_b       20.5956
_cell_length_c       28.1829
_cell_angle_alpha    89.972
_cell_angle_beta     91.2636
_cell_angle_gamma    90.1305

_symmetry_space_group_name_H-M    "P 1"
_symmetry_int_tables_number       1

loop_
  _symmetry_equiv_pos_as_xyz
  'x, y, z'

loop_
  _atom_site_label
  _atom_site_occupancy
  _atom_site_fract_x
  _atom_site_fract_y
  _atom_site_fract_z
  _atom_site_thermal_displace_type
  _atom_site_B_iso_or_equiv
  _atom_site_type_symbol
  C1       1.0000 0.21336  0.14117  0.56279  Biso   1.000  C 
  C2       1.0000 0.38514  0.13895  0.59450  Biso   1.000  C 
  C3       1.0000 0.50759  0.08862  0.57642  Biso   1.000  C 
  C4       1.0000 0.24564  0.76181  0.78580  Biso   1.000  C 
  C5       1.0000 0.28846  0.72371  0.82554  Biso   1.000  C 
  C6       1.0000 0.14220  0.67900  0.84240  Biso   1.000  C 
  C7       1.0000 0.95136  0.67436  0.81745  Biso   1.000  C 
  C8       1.0000 0.90926  0.71225  0.77759  Biso   1.000  C 
  C9       1.0000 0.05544  0.75696  0.76071  Biso   1.000  C 
  C10      1.0000 0.86109  0.41426  0.91479  Biso   1.000  C 
  C11      1.0000 0.68663  0.41485  0.88400  Biso   1.000  C 
  C12      1.0000 0.55936  0.46327  0.90287  Biso   1.000  C 
  C13      1.0000 0.55968  0.29701  0.76041  Biso   1.000  C 
  C14      1.0000 0.40064  0.31589  0.79080  Biso   1.000  C 
  C15      1.0000 0.44205  0.35387  0.83066  Biso   1.000  C 
  C16      1.0000 0.56172  0.08864  0.40247  Biso   1.000  C 
  C17      1.0000 0.80394  0.35580  0.81189  Biso   1.000  C 
  C18      1.0000 0.64459  0.37467  0.84215  Biso   1.000  C 
  C19      1.0000 0.51552  0.25692  0.71804  Biso   1.000  C 
  C20      1.0000 0.20955  0.41414  0.06398  Biso   1.000  C 
  C21      1.0000 0.76591  0.85558  0.66706  Biso   1.000  C 
  C22      1.0000 0.61977  0.17474  0.66116  Biso   1.000  C 
  C23      1.0000 0.42875  0.17906  0.63627  Biso   1.000  C 
  C24      1.0000 0.28235  0.22343  0.65324  Biso   1.000  C 
  C25      1.0000 0.32515  0.26147  0.69301  Biso   1.000  C 
  C26      1.0000 0.80836  0.81766  0.70692  Biso   1.000  C 
  C27      1.0000 0.12756  0.85441  0.64812  Biso   1.000  C 
  C28      1.0000 0.92483  0.87484  0.63673  Biso   1.000  C 
  C29      1.0000 0.76215  0.31788  0.77199  Biso   1.000  C 
  C30      1.0000 0.16965  0.81644  0.68795  Biso   1.000  C 
  C31      1.0000 0.01101  0.79715  0.71841  Biso   1.000  C 
  C32      1.0000 0.00991  0.96357  0.57597  Biso   1.000  C 
  C33      1.0000 0.88249  0.91500  0.59488  Biso   1.000  C 
  C34      1.0000 0.71430  0.64093  0.06273  Biso   1.000  C 
  C35      1.0000 0.70808  0.91422  0.56406  Biso   1.000  C 
  C36      1.0000 0.06298  0.58847  0.90235  Biso   1.000  C 
  C37      1.0000 0.66189  0.21257  0.70106  Biso   1.000  C 
  C38      1.0000 0.00890  0.58859  0.07635  Biso   1.000  C 
  C39      1.0000 0.18575  0.63884  0.88415  Biso   1.000  C 
  C40      1.0000 0.35787  0.64113  0.91578  Biso   1.000  C 
  C41      1.0000 0.74575  0.26175  0.28586  Biso   1.000  C 
  C42      1.0000 0.78821  0.22369  0.32564  Biso   1.000  C 
  C43      1.0000 0.64170  0.17904  0.34250  Biso   1.000  C 
  C44      1.0000 0.45104  0.17441  0.31746  Biso   1.000  C 
  C45      1.0000 0.35977  0.91439  0.41484  Biso   1.000  C 
  C46      1.0000 0.18547  0.91495  0.38400  Biso   1.000  C 
  C47      1.0000 0.05799  0.96333  0.40288  Biso   1.000  C 
  C48      1.0000 0.05949  0.79695  0.26041  Biso   1.000  C 
  C49      1.0000 0.90032  0.81577  0.29078  Biso   1.000  C 
  C50      1.0000 0.14377  0.87476  0.34213  Biso   1.000  C 
  C51      1.0000 0.30327  0.85595  0.31189  Biso   1.000  C 
  C52      1.0000 0.88601  0.63879  0.09447  Biso   1.000  C 
  C53      1.0000 0.26181  0.81795  0.27201  Biso   1.000  C 
  C54      1.0000 0.01560  0.75680  0.21806  Biso   1.000  C 
  C55      1.0000 0.94140  0.85381  0.33063  Biso   1.000  C 
  C56      1.0000 0.12018  0.67462  0.16120  Biso   1.000  C 
  C57      1.0000 0.16210  0.71248  0.20110  Biso   1.000  C 
  C58      1.0000 0.78262  0.72320  0.15324  Biso   1.000  C 
  C59      1.0000 0.92921  0.67888  0.13628  Biso   1.000  C 
  C60      1.0000 0.40932  0.21226  0.27756  Biso   1.000  C 
  C61      1.0000 0.55570  0.25693  0.26072  Biso   1.000  C 
  C62      1.0000 0.30899  0.31767  0.20688  Biso   1.000  C 
  C63      1.0000 0.26682  0.35562  0.16701  Biso   1.000  C 
  C64      1.0000 0.82524  0.76126  0.19301  Biso   1.000  C 
  C65      1.0000 0.62856  0.35437  0.14816  Biso   1.000  C 
  C66      1.0000 0.67036  0.31638  0.18799  Biso   1.000  C 
  C67      1.0000 0.51155  0.29711  0.21840  Biso   1.000  C 
  C68      1.0000 0.85667  0.14124  0.41598  Biso   1.000  C 
  C69      1.0000 0.68480  0.13895  0.38429  Biso   1.000  C 
  C70      1.0000 0.51133  0.46351  0.07592  Biso   1.000  C 
  C71      1.0000 0.38382  0.41497  0.09484  Biso   1.000  C 
  C72      1.0000 0.42592  0.37484  0.13671  Biso   1.000  C 
  Co1      1.0000 0.53425  0.00659  0.48946  Biso   1.000  Co
  Co2      1.0000 0.03603  0.50648  0.98936  Biso   1.000  Co
  Co3      1.0000 0.03438  0.04726  0.48940  Biso   1.000  Co
  Co4      1.0000 0.53582  0.54718  0.98928  Biso   1.000  Co
  H1       1.0000 0.07220  0.38365  0.06457  Biso   1.000  H 
  H2       1.0000 0.66122  0.48130  0.08846  Biso   1.000  H 
  H3       1.0000 0.07762  0.17217  0.56279  Biso   1.000  H 
  H4       1.0000 0.65525  0.06949  0.58909  Biso   1.000  H 
  H5       1.0000 0.41374  0.06947  0.38987  Biso   1.000  H 
  H6       1.0000 0.71012  0.79634  0.20431  Biso   1.000  H 
  H7       1.0000 0.74278  0.79858  0.28381  Biso   1.000  H 
  H8       1.0000 0.31012  0.70664  0.22000  Biso   1.000  H 
  H9       1.0000 0.38775  0.80572  0.24848  Biso   1.000  H 
  H10      1.0000 0.63297  0.72828  0.13492  Biso   1.000  H 
  H11      1.0000 0.93761  0.22906  0.34406  Biso   1.000  H 
  H12      1.0000 0.81582  0.86638  0.35420  Biso   1.000  H 
  H13      1.0000 0.90807  0.98094  0.39036  Biso   1.000  H 
  H14      1.0000 0.49715  0.88411  0.41425  Biso   1.000  H 
  H15      1.0000 0.36058  0.79718  0.77456  Biso   1.000  H 
  H16      1.0000 0.32751  0.79969  0.69484  Biso   1.000  H 
  H17      1.0000 0.75383  0.36727  0.12453  Biso   1.000  H 
  H18      1.0000 0.10912  0.37245  0.15988  Biso   1.000  H 
  H19      1.0000 0.33347  0.14021  0.32918  Biso   1.000  H 
  H20      1.0000 0.18336  0.30510  0.23046  Biso   1.000  H 
  H21      1.0000 0.46075  0.87317  0.31908  Biso   1.000  H 
  H22      1.0000 0.26160  0.20615  0.25855  Biso   1.000  H 
  H23      1.0000 0.23783  0.64068  0.14940  Biso   1.000  H 
  H24      1.0000 0.82815  0.29960  0.19493  Biso   1.000  H 
  H25      1.0000 0.21016  0.29659  0.70433  Biso   1.000  H 
  H26      1.0000 0.76143  0.70612  0.75863  Biso   1.000  H 
  H27      1.0000 0.99283  0.17225  0.41587  Biso   1.000  H 
  H28      1.0000 0.49398  0.67218  0.91565  Biso   1.000  H 
  H29      1.0000 0.86082  0.29709  0.27465  Biso   1.000  H 
  H30      1.0000 0.68283  0.80505  0.73052  Biso   1.000  H 
  H31      1.0000 0.15665  0.56954  0.08903  Biso   1.000  H 
  H32      1.0000 0.43795  0.72909  0.84391  Biso   1.000  H 
  H33      1.0000 0.83395  0.64012  0.82918  Biso   1.000  H 
  H34      1.0000 0.60814  0.87236  0.65995  Biso   1.000  H 
  H35      1.0000 0.25266  0.86732  0.62445  Biso   1.000  H 
  H36      1.0000 0.57068  0.88375  0.56466  Biso   1.000  H 
  H37      1.0000 0.91495  0.56929  0.88980  Biso   1.000  H 
  H38      1.0000 0.57830  0.67183  0.06273  Biso   1.000  H 
  H39      1.0000 0.15985  0.98136  0.58848  Biso   1.000  H 
  H40      1.0000 0.99838  0.38396  0.91417  Biso   1.000  H 
  H41      1.0000 0.31660  0.36653  0.85424  Biso   1.000  H 
  H42      1.0000 0.96148  0.37295  0.81907  Biso   1.000  H 
  H43      1.0000 0.40944  0.48089  0.89038  Biso   1.000  H 
  H44      1.0000 0.13273  0.22856  0.63493  Biso   1.000  H 
  H45      1.0000 0.88792  0.30563  0.74842  Biso   1.000  H 
  H46      1.0000 0.80990  0.20669  0.71995  Biso   1.000  H 
  H47      1.0000 0.24297  0.29882  0.78381  Biso   1.000  H 
  H48      1.0000 0.73728  0.14077  0.64934  Biso   1.000  H 
  N1       1.0000 0.73555  0.59588  0.02842  Biso   1.000  N 
  N2       1.0000 0.41863  0.48939  0.03692  Biso   1.000  N 
  N3       1.0000 0.83548  0.09614  0.45031  Biso   1.000  N 
  N4       1.0000 0.15079  0.98936  0.44185  Biso   1.000  N 
  N5       1.0000 0.33583  0.95869  0.44960  Biso   1.000  N 
  N6       1.0000 0.91695  0.56342  0.03703  Biso   1.000  N 
  N7       1.0000 0.65381  0.06354  0.44176  Biso   1.000  N 
  N8       1.0000 0.23359  0.45846  0.02917  Biso   1.000  N 
  N9       1.0000 0.73196  0.95858  0.52927  Biso   1.000  N 
  N10      1.0000 0.91707  0.98949  0.53700  Biso   1.000  N 
  N11      1.0000 0.65242  0.48930  0.94181  Biso   1.000  N 
  N12      1.0000 0.41532  0.06345  0.53714  Biso   1.000  N 
  N13      1.0000 0.23412  0.09603  0.52853  Biso   1.000  N 
  N14      1.0000 0.83742  0.45859  0.94954  Biso   1.000  N 
  N15      1.0000 0.15537  0.56337  0.94161  Biso   1.000  N 
  N16      1.0000 0.33700  0.59602  0.95010  Biso   1.000  N 
