data_image0
_cell_length_a       6.53466
_cell_length_b       15.2162
_cell_length_c       31.6981
_cell_angle_alpha    89.9705
_cell_angle_beta     95.7622
_cell_angle_gamma    90.1916

_symmetry_space_group_name_H-M    "P 1"
_symmetry_int_tables_number       1

loop_
  _symmetry_equiv_pos_as_xyz
  'x, y, z'

loop_
  _atom_site_label
  _atom_site_occupancy
  _atom_site_fract_x
  _atom_site_fract_y
  _atom_site_fract_z
  _atom_site_thermal_displace_type
  _atom_site_B_iso_or_equiv
  _atom_site_type_symbol
  C1       1.0000 0.22231  0.16543  0.56088  Biso   1.000  C 
  C2       1.0000 0.89631  0.65503  0.09064  Biso   1.000  C 
  C3       1.0000 0.29671  0.85191  0.31817  Biso   1.000  C 
  C4       1.0000 0.13784  0.86047  0.34470  Biso   1.000  C 
  C5       1.0000 0.89932  0.80264  0.28732  Biso   1.000  C 
  C6       1.0000 0.05772  0.79435  0.26062  Biso   1.000  C 
  C7       1.0000 0.04882  0.95432  0.40758  Biso   1.000  C 
  C8       1.0000 0.25720  0.81971  0.27710  Biso   1.000  C 
  C9       1.0000 0.17704  0.89736  0.38735  Biso   1.000  C 
  C10      1.0000 0.44331  0.17922  0.32158  Biso   1.000  C 
  C11      1.0000 0.63359  0.19343  0.34569  Biso   1.000  C 
  C12      1.0000 0.78235  0.24320  0.32695  Biso   1.000  C 
  C13      1.0000 0.74296  0.27658  0.28609  Biso   1.000  C 
  C14      1.0000 0.34999  0.66552  0.91761  Biso   1.000  C 
  C15      1.0000 0.17579  0.65546  0.88797  Biso   1.000  C 
  C16      1.0000 0.35149  0.88821  0.41682  Biso   1.000  C 
  C17      1.0000 0.01684  0.76024  0.21703  Biso   1.000  C 
  C18      1.0000 0.93842  0.83500  0.32837  Biso   1.000  C 
  C19      1.0000 0.12818  0.67930  0.15709  Biso   1.000  C 
  C20      1.0000 0.43166  0.36158  0.13417  Biso   1.000  C 
  C21      1.0000 0.39246  0.39822  0.09147  Biso   1.000  C 
  C22      1.0000 0.67507  0.15547  0.38800  Biso   1.000  C 
  C23      1.0000 0.84916  0.16555  0.41767  Biso   1.000  C 
  C24      1.0000 0.51225  0.29588  0.21830  Biso   1.000  C 
  C25      1.0000 0.67060  0.30484  0.19159  Biso   1.000  C 
  C26      1.0000 0.63129  0.33700  0.15053  Biso   1.000  C 
  C27      1.0000 0.82696  0.77414  0.19288  Biso   1.000  C 
  C28      1.0000 0.27285  0.35238  0.16071  Biso   1.000  C 
  C29      1.0000 0.31259  0.32035  0.20180  Biso   1.000  C 
  C30      1.0000 0.55350  0.26173  0.26186  Biso   1.000  C 
  C31      1.0000 0.40450  0.21237  0.28072  Biso   1.000  C 
  C32      1.0000 0.93754  0.69260  0.13305  Biso   1.000  C 
  C33      1.0000 0.78793  0.74105  0.15196  Biso   1.000  C 
  C34      1.0000 0.16658  0.71209  0.19803  Biso   1.000  C 
  C35      1.0000 0.02085  0.59572  0.07077  Biso   1.000  C 
  C36      1.0000 0.66655  0.21187  0.69803  Biso   1.000  C 
  C37      1.0000 0.52132  0.45501  0.07108  Biso   1.000  C 
  C38      1.0000 0.71713  0.88884  0.56207  Biso   1.000  C 
  C39      1.0000 0.43890  0.33490  0.82840  Biso   1.000  C 
  C40      1.0000 0.39974  0.30249  0.78737  Biso   1.000  C 
  C41      1.0000 0.55812  0.29417  0.76066  Biso   1.000  C 
  C42      1.0000 0.54923  0.45418  0.90759  Biso   1.000  C 
  C43      1.0000 0.67756  0.39732  0.88734  Biso   1.000  C 
  C44      1.0000 0.85217  0.38829  0.91678  Biso   1.000  C 
  C45      1.0000 0.54997  0.09605  0.40790  Biso   1.000  C 
  C46      1.0000 0.05341  0.76180  0.76186  Biso   1.000  C 
  C47      1.0000 0.94369  0.67918  0.82158  Biso   1.000  C 
  C48      1.0000 0.13402  0.69344  0.84566  Biso   1.000  C 
  C49      1.0000 0.28253  0.74332  0.82691  Biso   1.000  C 
  C50      1.0000 0.52017  0.09575  0.57078  Biso   1.000  C 
  C51      1.0000 0.39578  0.15509  0.59066  Biso   1.000  C 
  C52      1.0000 0.05074  0.59605  0.90789  Biso   1.000  C 
  C53      1.0000 0.90463  0.71235  0.78074  Biso   1.000  C 
  C54      1.0000 0.79721  0.35172  0.81818  Biso   1.000  C 
  C55      1.0000 0.24289  0.77674  0.78606  Biso   1.000  C 
  C56      1.0000 0.51703  0.26009  0.71707  Biso   1.000  C 
  C57      1.0000 0.63836  0.36037  0.84471  Biso   1.000  C 
  C58      1.0000 0.89186  0.89827  0.59149  Biso   1.000  C 
  C59      1.0000 0.72292  0.66534  0.06085  Biso   1.000  C 
  C60      1.0000 0.01198  0.79593  0.71829  Biso   1.000  C 
  C61      1.0000 0.17028  0.80498  0.69159  Biso   1.000  C 
  C62      1.0000 0.75766  0.31944  0.77713  Biso   1.000  C 
  C63      1.0000 0.93115  0.86163  0.63417  Biso   1.000  C 
  C64      1.0000 0.02060  0.95515  0.57111  Biso   1.000  C 
  C65      1.0000 0.81222  0.82030  0.70180  Biso   1.000  C 
  C66      1.0000 0.32714  0.27414  0.69295  Biso   1.000  C 
  C67      1.0000 0.28784  0.24113  0.65202  Biso   1.000  C 
  C68      1.0000 0.43721  0.19261  0.63307  Biso   1.000  C 
  C69      1.0000 0.21769  0.38883  0.06207  Biso   1.000  C 
  C70      1.0000 0.62788  0.17917  0.65708  Biso   1.000  C 
  C71      1.0000 0.77238  0.85231  0.66071  Biso   1.000  C 
  C72      1.0000 0.13087  0.83715  0.65052  Biso   1.000  C 
  Co1      1.0000 0.53573  0.55156  0.98921  Biso   1.000  Co
  Co2      1.0000 0.03507  0.05161  0.48923  Biso   1.000  Co
  Co3      1.0000 0.53470  0.99931  0.48932  Biso   1.000  Co
  Co4      1.0000 0.03547  0.49928  0.98927  Biso   1.000  Co
  H1       1.0000 0.48869  0.70422  0.91573  Biso   1.000  H 
  H2       1.0000 0.86055  0.31633  0.27295  Biso   1.000  H 
  H3       1.0000 0.98784  0.20427  0.41581  Biso   1.000  H 
  H4       1.0000 0.68720  0.81667  0.72210  Biso   1.000  H 
  H5       1.0000 0.16985  0.56846  0.08192  Biso   1.000  H 
  H6       1.0000 0.43180  0.75626  0.84449  Biso   1.000  H 
  H7       1.0000 0.82479  0.64033  0.83478  Biso   1.000  H 
  H8       1.0000 0.61712  0.87341  0.64936  Biso   1.000  H 
  H9       1.0000 0.25568  0.84163  0.63018  Biso   1.000  H 
  H10      1.0000 0.57788  0.85068  0.56435  Biso   1.000  H 
  H11      1.0000 0.81420  0.19796  0.71596  Biso   1.000  H 
  H12      1.0000 0.58487  0.70412  0.06262  Biso   1.000  H 
  H13      1.0000 0.17065  0.98166  0.58245  Biso   1.000  H 
  H14      1.0000 0.99107  0.35024  0.91461  Biso   1.000  H 
  H15      1.0000 0.31406  0.33886  0.84875  Biso   1.000  H 
  H16      1.0000 0.95226  0.37355  0.82951  Biso   1.000  H 
  H17      1.0000 0.39940  0.48044  0.89621  Biso   1.000  H 
  H18      1.0000 0.13820  0.25329  0.63451  Biso   1.000  H 
  H19      1.0000 0.88272  0.31639  0.75683  Biso   1.000  H 
  H20      1.0000 0.24441  0.28089  0.77618  Biso   1.000  H 
  H21      1.0000 0.74745  0.14140  0.64372  Biso   1.000  H 
  H22      1.0000 0.75739  0.69776  0.76271  Biso   1.000  H 
  H23      1.0000 0.90099  0.56893  0.89690  Biso   1.000  H 
  H24      1.0000 0.20909  0.31300  0.70623  Biso   1.000  H 
  H25      1.0000 0.89915  0.98070  0.39616  Biso   1.000  H 
  H26      1.0000 0.24797  0.64157  0.14377  Biso   1.000  H 
  H27      1.0000 0.07841  0.35071  0.06436  Biso   1.000  H 
  H28      1.0000 0.67153  0.48139  0.08241  Biso   1.000  H 
  H29      1.0000 0.82603  0.28386  0.20283  Biso   1.000  H 
  H30      1.0000 0.66915  0.06844  0.58190  Biso   1.000  H 
  H31      1.0000 0.40026  0.06890  0.39689  Biso   1.000  H 
  H32      1.0000 0.70873  0.81295  0.20612  Biso   1.000  H 
  H33      1.0000 0.74402  0.78107  0.27610  Biso   1.000  H 
  H34      1.0000 0.31419  0.69828  0.21600  Biso   1.000  H 
  H35      1.0000 0.38224  0.81677  0.25679  Biso   1.000  H 
  H36      1.0000 0.63830  0.75310  0.13443  Biso   1.000  H 
  H37      1.0000 0.08439  0.20431  0.56265  Biso   1.000  H 
  H38      1.0000 0.81348  0.83895  0.34869  Biso   1.000  H 
  H39      1.0000 0.93160  0.25607  0.34456  Biso   1.000  H 
  H40      1.0000 0.25729  0.19783  0.26267  Biso   1.000  H 
  H41      1.0000 0.18755  0.31679  0.22210  Biso   1.000  H 
  H42      1.0000 0.32423  0.14047  0.33476  Biso   1.000  H 
  H43      1.0000 0.45174  0.87377  0.32949  Biso   1.000  H 
  H44      1.0000 0.75618  0.34144  0.13019  Biso   1.000  H 
  H45      1.0000 0.32579  0.78410  0.70281  Biso   1.000  H 
  H46      1.0000 0.36028  0.81658  0.77291  Biso   1.000  H 
  H47      1.0000 0.49027  0.85007  0.41467  Biso   1.000  H 
  H48      1.0000 0.11763  0.37355  0.14936  Biso   1.000  H 
  N1       1.0000 0.74107  0.93649  0.52687  Biso   1.000  N 
  N2       1.0000 0.82850  0.43616  0.95189  Biso   1.000  N 
  N3       1.0000 0.24295  0.11591  0.52618  Biso   1.000  N 
  N4       1.0000 0.42675  0.07270  0.53250  Biso   1.000  N 
  N5       1.0000 0.64224  0.47746  0.94594  Biso   1.000  N 
  N6       1.0000 0.92771  0.97804  0.53272  Biso   1.000  N 
  N7       1.0000 0.24171  0.43644  0.02686  Biso   1.000  N 
  N8       1.0000 0.82824  0.11582  0.45232  Biso   1.000  N 
  N9       1.0000 0.92756  0.57268  0.03248  Biso   1.000  N 
  N10      1.0000 0.32784  0.93610  0.45192  Biso   1.000  N 
  N11      1.0000 0.14171  0.97752  0.44595  Biso   1.000  N 
  N12      1.0000 0.42845  0.47791  0.03269  Biso   1.000  N 
  N13      1.0000 0.74369  0.61583  0.02615  Biso   1.000  N 
  N14      1.0000 0.14444  0.57274  0.94607  Biso   1.000  N 
  N15      1.0000 0.64359  0.07274  0.44609  Biso   1.000  N 
  N16      1.0000 0.32911  0.61582  0.95228  Biso   1.000  N 
