data_image0
_cell_length_a       6.61716
_cell_length_b       12.1845
_cell_length_c       33.0724
_cell_angle_alpha    90.027
_cell_angle_beta     98.7124
_cell_angle_gamma    89.9102

_symmetry_space_group_name_H-M    "P 1"
_symmetry_int_tables_number       1

loop_
  _symmetry_equiv_pos_as_xyz
  'x, y, z'

loop_
  _atom_site_label
  _atom_site_occupancy
  _atom_site_fract_x
  _atom_site_fract_y
  _atom_site_fract_z
  _atom_site_thermal_displace_type
  _atom_site_B_iso_or_equiv
  _atom_site_type_symbol
  C1       1.0000 0.22655  0.19126  0.56061  Biso   1.000  C 
  C2       1.0000 0.67020  0.21385  0.69796  Biso   1.000  C 
  C3       1.0000 0.90495  0.67628  0.08968  Biso   1.000  C 
  C4       1.0000 0.28901  0.84598  0.32239  Biso   1.000  C 
  C5       1.0000 0.89880  0.78679  0.28536  Biso   1.000  C 
  C6       1.0000 0.05710  0.79074  0.26137  Biso   1.000  C 
  C7       1.0000 0.03783  0.94112  0.40965  Biso   1.000  C 
  C8       1.0000 0.25315  0.82056  0.28093  Biso   1.000  C 
  C9       1.0000 0.16675  0.87666  0.38915  Biso   1.000  C 
  C10      1.0000 0.43588  0.18727  0.32199  Biso   1.000  C 
  C11      1.0000 0.62488  0.21023  0.34630  Biso   1.000  C 
  C12      1.0000 0.77531  0.26217  0.32723  Biso   1.000  C 
  C13      1.0000 0.73917  0.28870  0.28586  Biso   1.000  C 
  C14      1.0000 0.34343  0.69147  0.91824  Biso   1.000  C 
  C15      1.0000 0.16736  0.67608  0.88903  Biso   1.000  C 
  C16      1.0000 0.34385  0.86328  0.41811  Biso   1.000  C 
  C17      1.0000 0.01940  0.76471  0.21732  Biso   1.000  C 
  C18      1.0000 0.13009  0.84281  0.34623  Biso   1.000  C 
  C19      1.0000 0.13472  0.68782  0.15668  Biso   1.000  C 
  C20      1.0000 0.83122  0.78905  0.19300  Biso   1.000  C 
  C21      1.0000 0.40327  0.37708  0.08968  Biso   1.000  C 
  C22      1.0000 0.44007  0.34315  0.13259  Biso   1.000  C 
  C23      1.0000 0.84096  0.19106  0.41831  Biso   1.000  C 
  C24      1.0000 0.51346  0.29087  0.21745  Biso   1.000  C 
  C25      1.0000 0.67187  0.28737  0.19347  Biso   1.000  C 
  C26      1.0000 0.63618  0.31297  0.15201  Biso   1.000  C 
  C27      1.0000 0.94544  0.71086  0.13245  Biso   1.000  C 
  C28      1.0000 0.28105  0.34589  0.15642  Biso   1.000  C 
  C29      1.0000 0.31709  0.32039  0.19786  Biso   1.000  C 
  C30      1.0000 0.55121  0.26455  0.26147  Biso   1.000  C 
  C31      1.0000 0.40020  0.21363  0.28066  Biso   1.000  C 
  C32      1.0000 0.17059  0.71397  0.19804  Biso   1.000  C 
  C33      1.0000 0.79494  0.76276  0.15161  Biso   1.000  C 
  C34      1.0000 0.93427  0.81232  0.32683  Biso   1.000  C 
  C35      1.0000 0.03055  0.60964  0.06910  Biso   1.000  C 
  C36      1.0000 0.63377  0.18770  0.65661  Biso   1.000  C 
  C37      1.0000 0.66502  0.17561  0.38907  Biso   1.000  C 
  C38      1.0000 0.72450  0.86330  0.56070  Biso   1.000  C 
  C39      1.0000 0.43550  0.31228  0.82692  Biso   1.000  C 
  C40      1.0000 0.39954  0.28670  0.78546  Biso   1.000  C 
  C41      1.0000 0.55752  0.29056  0.76138  Biso   1.000  C 
  C42      1.0000 0.53974  0.44116  0.90969  Biso   1.000  C 
  C43      1.0000 0.66862  0.37677  0.88914  Biso   1.000  C 
  C44      1.0000 0.84603  0.36367  0.91805  Biso   1.000  C 
  C45      1.0000 0.53953  0.10892  0.40956  Biso   1.000  C 
  C46      1.0000 0.05188  0.76477  0.76144  Biso   1.000  C 
  C47      1.0000 0.93771  0.68745  0.82205  Biso   1.000  C 
  C48      1.0000 0.12685  0.71068  0.84627  Biso   1.000  C 
  C49      1.0000 0.27680  0.76277  0.82711  Biso   1.000  C 
  C50      1.0000 0.40323  0.17602  0.58970  Biso   1.000  C 
  C51      1.0000 0.04185  0.60945  0.90954  Biso   1.000  C 
  C52      1.0000 0.53207  0.44144  0.06921  Biso   1.000  C 
  C53      1.0000 0.90137  0.71371  0.78072  Biso   1.000  C 
  C54      1.0000 0.79009  0.34578  0.82231  Biso   1.000  C 
  C55      1.0000 0.52860  0.10928  0.56912  Biso   1.000  C 
  C56      1.0000 0.51929  0.26456  0.71733  Biso   1.000  C 
  C57      1.0000 0.23998  0.78921  0.78572  Biso   1.000  C 
  C58      1.0000 0.90164  0.87658  0.58965  Biso   1.000  C 
  C59      1.0000 0.63150  0.34277  0.84623  Biso   1.000  C 
  C60      1.0000 0.01347  0.79093  0.71742  Biso   1.000  C 
  C61      1.0000 0.17153  0.78735  0.69337  Biso   1.000  C 
  C62      1.0000 0.75377  0.32029  0.78087  Biso   1.000  C 
  C63      1.0000 0.93894  0.84277  0.63256  Biso   1.000  C 
  C64      1.0000 0.72842  0.69154  0.06055  Biso   1.000  C 
  C65      1.0000 0.81686  0.82028  0.69792  Biso   1.000  C 
  C66      1.0000 0.33090  0.28892  0.69310  Biso   1.000  C 
  C67      1.0000 0.29407  0.26263  0.65170  Biso   1.000  C 
  C68      1.0000 0.44423  0.21070  0.63246  Biso   1.000  C 
  C69      1.0000 0.13528  0.81273  0.65189  Biso   1.000  C 
  C70      1.0000 0.22634  0.36383  0.06068  Biso   1.000  C 
  C71      1.0000 0.78027  0.84558  0.65647  Biso   1.000  C 
  C72      1.0000 0.03021  0.94097  0.56913  Biso   1.000  C 
  Co1      1.0000 0.03370  0.05610  0.48944  Biso   1.000  Co
  Co2      1.0000 0.53592  0.55634  0.98940  Biso   1.000  Co
  Co3      1.0000 0.03612  0.49714  0.98931  Biso   1.000  Co
  Co4      1.0000 0.53383  0.99667  0.48937  Biso   1.000  Co
  H1       1.0000 0.85826  0.33050  0.27228  Biso   1.000  H 
  H2       1.0000 0.21204  0.33073  0.70681  Biso   1.000  H 
  H3       1.0000 0.48330  0.73590  0.91589  Biso   1.000  H 
  H4       1.0000 0.69223  0.82719  0.71592  Biso   1.000  H 
  H5       1.0000 0.18186  0.57677  0.07965  Biso   1.000  H 
  H6       1.0000 0.42521  0.78260  0.84476  Biso   1.000  H 
  H7       1.0000 0.81791  0.64611  0.83554  Biso   1.000  H 
  H8       1.0000 0.62804  0.87237  0.64257  Biso   1.000  H 
  H9       1.0000 0.26008  0.80743  0.63385  Biso   1.000  H 
  H10      1.0000 0.58416  0.81954  0.56329  Biso   1.000  H 
  H11      1.0000 0.31080  0.30676  0.84497  Biso   1.000  H 
  H12      1.0000 0.58833  0.73594  0.06297  Biso   1.000  H 
  H13      1.0000 0.81678  0.19165  0.71587  Biso   1.000  H 
  H14      1.0000 0.75513  0.69134  0.76275  Biso   1.000  H 
  H15      1.0000 0.24708  0.26053  0.77161  Biso   1.000  H 
  H16      1.0000 0.87823  0.32746  0.76285  Biso   1.000  H 
  H17      1.0000 0.75389  0.14659  0.64305  Biso   1.000  H 
  H18      1.0000 0.38783  0.47283  0.89869  Biso   1.000  H 
  H19      1.0000 0.94204  0.37286  0.83617  Biso   1.000  H 
  H20      1.0000 0.98665  0.31997  0.91543  Biso   1.000  H 
  H21      1.0000 0.14541  0.28237  0.63410  Biso   1.000  H 
  H22      1.0000 0.89084  0.57652  0.89892  Biso   1.000  H 
  H23      1.0000 0.98079  0.23555  0.41600  Biso   1.000  H 
  H24      1.0000 0.18181  0.97276  0.58015  Biso   1.000  H 
  H25      1.0000 0.92366  0.28177  0.34496  Biso   1.000  H 
  H26      1.0000 0.08657  0.23574  0.56306  Biso   1.000  H 
  H27      1.0000 0.68364  0.47323  0.08027  Biso   1.000  H 
  H28      1.0000 0.82448  0.26141  0.20738  Biso   1.000  H 
  H29      1.0000 0.88611  0.97299  0.39861  Biso   1.000  H 
  H30      1.0000 0.67989  0.07635  0.57965  Biso   1.000  H 
  H31      1.0000 0.38855  0.07594  0.39893  Biso   1.000  H 
  H32      1.0000 0.71211  0.83082  0.20666  Biso   1.000  H 
  H33      1.0000 0.74648  0.76056  0.27145  Biso   1.000  H 
  H34      1.0000 0.31699  0.69176  0.21602  Biso   1.000  H 
  H35      1.0000 0.37780  0.82784  0.26297  Biso   1.000  H 
  H36      1.0000 0.64644  0.78247  0.13393  Biso   1.000  H 
  H37      1.0000 0.08590  0.32010  0.06321  Biso   1.000  H 
  H38      1.0000 0.80937  0.80672  0.34482  Biso   1.000  H 
  H39      1.0000 0.35858  0.83115  0.77205  Biso   1.000  H 
  H40      1.0000 0.25506  0.64671  0.14320  Biso   1.000  H 
  H41      1.0000 0.48435  0.81943  0.41552  Biso   1.000  H 
  H42      1.0000 0.32429  0.76153  0.70724  Biso   1.000  H 
  H43      1.0000 0.12897  0.37278  0.14248  Biso   1.000  H 
  H44      1.0000 0.44082  0.87310  0.33632  Biso   1.000  H 
  H45      1.0000 0.31566  0.14607  0.33540  Biso   1.000  H 
  H46      1.0000 0.19218  0.32727  0.21578  Biso   1.000  H 
  H47      1.0000 0.25404  0.19146  0.26262  Biso   1.000  H 
  H48      1.0000 0.76127  0.30769  0.13404  Biso   1.000  H 
  N1       1.0000 0.93423  0.96555  0.53121  Biso   1.000  N 
  N2       1.0000 0.63527  0.08558  0.44753  Biso   1.000  N 
  N3       1.0000 0.74586  0.91682  0.52577  Biso   1.000  N 
  N4       1.0000 0.82449  0.41725  0.95298  Biso   1.000  N 
  N5       1.0000 0.43217  0.08573  0.53122  Biso   1.000  N 
  N6       1.0000 0.63575  0.46588  0.94758  Biso   1.000  N 
  N7       1.0000 0.24536  0.13657  0.52577  Biso   1.000  N 
  N8       1.0000 0.74752  0.63696  0.02570  Biso   1.000  N 
  N9       1.0000 0.32211  0.91681  0.45305  Biso   1.000  N 
  N10      1.0000 0.13355  0.96565  0.44759  Biso   1.000  N 
  N11      1.0000 0.43643  0.46603  0.03126  Biso   1.000  N 
  N12      1.0000 0.13770  0.58608  0.94750  Biso   1.000  N 
  N13      1.0000 0.93437  0.58617  0.03118  Biso   1.000  N 
  N14      1.0000 0.24803  0.41732  0.02576  Biso   1.000  N 
  N15      1.0000 0.82168  0.13653  0.45314  Biso   1.000  N 
  N16      1.0000 0.32419  0.63695  0.95308  Biso   1.000  N 
