data_image0
_cell_length_a       6.85296
_cell_length_b       24.2575
_cell_length_c       25.6517
_cell_angle_alpha    89.9763
_cell_angle_beta     96.675
_cell_angle_gamma    90.1025

_symmetry_space_group_name_H-M    "P 1"
_symmetry_int_tables_number       1

loop_
  _symmetry_equiv_pos_as_xyz
  'x, y, z'

loop_
  _atom_site_label
  _atom_site_occupancy
  _atom_site_fract_x
  _atom_site_fract_y
  _atom_site_fract_z
  _atom_site_thermal_displace_type
  _atom_site_B_iso_or_equiv
  _atom_site_type_symbol
  C1       1.0000 0.21001  0.12467  0.56433  Biso   1.000  C 
  C2       1.0000 0.88763  0.63412  0.09669  Biso   1.000  C 
  C3       1.0000 0.28757  0.85853  0.31245  Biso   1.000  C 
  C4       1.0000 0.14017  0.87799  0.34163  Biso   1.000  C 
  C5       1.0000 0.90935  0.81654  0.29055  Biso   1.000  C 
  C6       1.0000 0.05654  0.79700  0.26130  Biso   1.000  C 
  C7       1.0000 0.05269  0.95829  0.40056  Biso   1.000  C 
  C8       1.0000 0.24666  0.81903  0.27337  Biso   1.000  C 
  C9       1.0000 0.18226  0.91951  0.38274  Biso   1.000  C 
  C10      1.0000 0.45492  0.17891  0.31099  Biso   1.000  C 
  C11      1.0000 0.64112  0.17581  0.34055  Biso   1.000  C 
  C12      1.0000 0.78442  0.21392  0.32838  Biso   1.000  C 
  C13      1.0000 0.74338  0.25299  0.28894  Biso   1.000  C 
  C14      1.0000 0.36121  0.62508  0.91414  Biso   1.000  C 
  C15      1.0000 0.18311  0.63477  0.88212  Biso   1.000  C 
  C16      1.0000 0.36131  0.93020  0.41390  Biso   1.000  C 
  C17      1.0000 0.01313  0.75530  0.21962  Biso   1.000  C 
  C18      1.0000 0.95008  0.85593  0.32970  Biso   1.000  C 
  C19      1.0000 0.11532  0.67811  0.16817  Biso   1.000  C 
  C20      1.0000 0.42984  0.37853  0.13717  Biso   1.000  C 
  C21      1.0000 0.38780  0.41989  0.09590  Biso   1.000  C 
  C22      1.0000 0.68312  0.13477  0.38211  Biso   1.000  C 
  C23      1.0000 0.86123  0.12508  0.41414  Biso   1.000  C 
  C24      1.0000 0.51369  0.29782  0.21775  Biso   1.000  C 
  C25      1.0000 0.66065  0.31729  0.18828  Biso   1.000  C 
  C26      1.0000 0.61979  0.35653  0.14901  Biso   1.000  C 
  C27      1.0000 0.82708  0.75203  0.19004  Biso   1.000  C 
  C28      1.0000 0.28270  0.35915  0.16657  Biso   1.000  C 
  C29      1.0000 0.32369  0.31978  0.20577  Biso   1.000  C 
  C30      1.0000 0.55714  0.25619  0.25947  Biso   1.000  C 
  C31      1.0000 0.41409  0.21800  0.27157  Biso   1.000  C 
  C32      1.0000 0.92939  0.67497  0.13845  Biso   1.000  C 
  C33      1.0000 0.78615  0.71297  0.15057  Biso   1.000  C 
  C34      1.0000 0.15602  0.71717  0.20764  Biso   1.000  C 
  C35      1.0000 0.01617  0.59487  0.07902  Biso   1.000  C 
  C36      1.0000 0.65600  0.21718  0.70762  Biso   1.000  C 
  C37      1.0000 0.51788  0.45846  0.07774  Biso   1.000  C 
  C38      1.0000 0.70868  0.93052  0.56481  Biso   1.000  C 
  C39      1.0000 0.45002  0.35593  0.82970  Biso   1.000  C 
  C40      1.0000 0.40930  0.31654  0.79055  Biso   1.000  C 
  C41      1.0000 0.55649  0.29700  0.76129  Biso   1.000  C 
  C42      1.0000 0.55263  0.45829  0.90057  Biso   1.000  C 
  C43      1.0000 0.68219  0.41951  0.88275  Biso   1.000  C 
  C44      1.0000 0.86124  0.43020  0.91390  Biso   1.000  C 
  C45      1.0000 0.55451  0.09537  0.39974  Biso   1.000  C 
  C46      1.0000 0.05712  0.75618  0.75946  Biso   1.000  C 
  C47      1.0000 0.95489  0.67892  0.81100  Biso   1.000  C 
  C48      1.0000 0.14111  0.67581  0.84056  Biso   1.000  C 
  C49      1.0000 0.28441  0.71391  0.82838  Biso   1.000  C 
  C50      1.0000 0.51619  0.09488  0.57901  Biso   1.000  C 
  C51      1.0000 0.38764  0.13413  0.59668  Biso   1.000  C 
  C52      1.0000 0.05448  0.59538  0.89974  Biso   1.000  C 
  C53      1.0000 0.91406  0.71799  0.77157  Biso   1.000  C 
  C54      1.0000 0.78751  0.35853  0.81245  Biso   1.000  C 
  C55      1.0000 0.24337  0.75299  0.78894  Biso   1.000  C 
  C56      1.0000 0.51309  0.25531  0.71961  Biso   1.000  C 
  C57      1.0000 0.64010  0.37798  0.84163  Biso   1.000  C 
  C58      1.0000 0.88782  0.91987  0.59587  Biso   1.000  C 
  C59      1.0000 0.71000  0.62467  0.06435  Biso   1.000  C 
  C60      1.0000 0.01368  0.79780  0.71773  Biso   1.000  C 
  C61      1.0000 0.16063  0.81725  0.68826  Biso   1.000  C 
  C62      1.0000 0.74661  0.31904  0.77337  Biso   1.000  C 
  C63      1.0000 0.92985  0.87850  0.63714  Biso   1.000  C 
  C64      1.0000 0.01790  0.95844  0.57773  Biso   1.000  C 
  C65      1.0000 0.82369  0.81977  0.70575  Biso   1.000  C 
  C66      1.0000 0.32705  0.25203  0.69003  Biso   1.000  C 
  C67      1.0000 0.28613  0.21297  0.65056  Biso   1.000  C 
  C68      1.0000 0.42939  0.17498  0.63844  Biso   1.000  C 
  C69      1.0000 0.20865  0.43054  0.06483  Biso   1.000  C 
  C70      1.0000 0.61531  0.17813  0.66816  Biso   1.000  C 
  C71      1.0000 0.78270  0.85912  0.66655  Biso   1.000  C 
  C72      1.0000 0.11979  0.85650  0.64898  Biso   1.000  C 
  Co1      1.0000 0.53564  0.53758  0.98904  Biso   1.000  Co
  Co2      1.0000 0.03568  0.03758  0.48903  Biso   1.000  Co
  Co3      1.0000 0.53538  0.01735  0.48919  Biso   1.000  Co
  Co4      1.0000 0.03532  0.51735  0.98920  Biso   1.000  Co
  H1       1.0000 0.50301  0.64523  0.91453  Biso   1.000  H 
  H2       1.0000 0.85714  0.28262  0.28168  Biso   1.000  H 
  H3       1.0000 0.00302  0.14525  0.41453  Biso   1.000  H 
  H4       1.0000 0.70706  0.80687  0.72867  Biso   1.000  H 
  H5       1.0000 0.16988  0.58674  0.09209  Biso   1.000  H 
  H6       1.0000 0.43023  0.71353  0.85055  Biso   1.000  H 
  H7       1.0000 0.84005  0.64975  0.81852  Biso   1.000  H 
  H8       1.0000 0.63491  0.87630  0.65945  Biso   1.000  H 
  H9       1.0000 0.23611  0.86946  0.62596  Biso   1.000  H 
  H10      1.0000 0.56708  0.91028  0.56459  Biso   1.000  H 
  H11      1.0000 0.80075  0.21733  0.73038  Biso   1.000  H 
  H12      1.0000 0.56843  0.64482  0.06388  Biso   1.000  H 
  H13      1.0000 0.17216  0.96601  0.59077  Biso   1.000  H 
  H14      1.0000 0.00244  0.40983  0.91435  Biso   1.000  H 
  H15      1.0000 0.33345  0.36899  0.85253  Biso   1.000  H 
  H16      1.0000 0.93540  0.37578  0.81962  Biso   1.000  H 
  H17      1.0000 0.39861  0.46588  0.88738  Biso   1.000  H 
  H18      1.0000 0.14046  0.21254  0.62830  Biso   1.000  H 
  H19      1.0000 0.86347  0.30610  0.75062  Biso   1.000  H 
  H20      1.0000 0.26136  0.29936  0.78350  Biso   1.000  H 
  H21      1.0000 0.73012  0.14904  0.66072  Biso   1.000  H 
  H22      1.0000 0.76910  0.71809  0.74892  Biso   1.000  H 
  H23      1.0000 0.90041  0.58738  0.88687  Biso   1.000  H 
  H24      1.0000 0.21338  0.28161  0.69718  Biso   1.000  H 
  H25      1.0000 0.89867  0.96588  0.38737  Biso   1.000  H 
  H26      1.0000 0.23010  0.64901  0.16073  Biso   1.000  H 
  H27      1.0000 0.06705  0.41030  0.06463  Biso   1.000  H 
  H28      1.0000 0.67214  0.46603  0.09077  Biso   1.000  H 
  H29      1.0000 0.80843  0.30013  0.19523  Biso   1.000  H 
  H30      1.0000 0.66990  0.08675  0.59207  Biso   1.000  H 
  H31      1.0000 0.40044  0.08737  0.38686  Biso   1.000  H 
  H32      1.0000 0.71344  0.78161  0.19719  Biso   1.000  H 
  H33      1.0000 0.76140  0.79937  0.28351  Biso   1.000  H 
  H34      1.0000 0.30077  0.71731  0.23039  Biso   1.000  H 
  H35      1.0000 0.36350  0.80609  0.25061  Biso   1.000  H 
  H36      1.0000 0.64047  0.71255  0.12831  Biso   1.000  H 
  H37      1.0000 0.06844  0.14482  0.56387  Biso   1.000  H 
  H38      1.0000 0.83352  0.86900  0.35253  Biso   1.000  H 
  H39      1.0000 0.93024  0.21353  0.35056  Biso   1.000  H 
  H40      1.0000 0.26913  0.21810  0.24892  Biso   1.000  H 
  H41      1.0000 0.20707  0.30688  0.22869  Biso   1.000  H 
  H42      1.0000 0.34009  0.14974  0.31850  Biso   1.000  H 
  H43      1.0000 0.43547  0.87579  0.31961  Biso   1.000  H 
  H44      1.0000 0.73610  0.36950  0.12599  Biso   1.000  H 
  H45      1.0000 0.30841  0.80009  0.69521  Biso   1.000  H 
  H46      1.0000 0.35712  0.78262  0.78168  Biso   1.000  H 
  H47      1.0000 0.50251  0.90983  0.41435  Biso   1.000  H 
  H48      1.0000 0.13490  0.37632  0.15948  Biso   1.000  H 
  N1       1.0000 0.73171  0.97191  0.53082  Biso   1.000  N 
  N2       1.0000 0.83866  0.47181  0.94762  Biso   1.000  N 
  N3       1.0000 0.23241  0.08334  0.53034  Biso   1.000  N 
  N4       1.0000 0.42181  0.06484  0.53950  Biso   1.000  N 
  N5       1.0000 0.64812  0.48945  0.93909  Biso   1.000  N 
  N6       1.0000 0.92263  0.98945  0.53910  Biso   1.000  N 
  N7       1.0000 0.23167  0.47192  0.03084  Biso   1.000  N 
  N8       1.0000 0.83899  0.08347  0.44791  Biso   1.000  N 
  N9       1.0000 0.92179  0.56483  0.03952  Biso   1.000  N 
  N10      1.0000 0.33870  0.97181  0.44762  Biso   1.000  N 
  N11      1.0000 0.14817  0.98945  0.43908  Biso   1.000  N 
  N12      1.0000 0.42259  0.48946  0.03910  Biso   1.000  N 
  N13      1.0000 0.73239  0.58334  0.03035  Biso   1.000  N 
  N14      1.0000 0.14917  0.56504  0.93893  Biso   1.000  N 
  N15      1.0000 0.64921  0.06503  0.43892  Biso   1.000  N 
  N16      1.0000 0.33897  0.58347  0.94792  Biso   1.000  N 
