data_image0
_cell_length_a       6.70133
_cell_length_b       11.1618
_cell_length_c       33.494
_cell_angle_alpha    90.1756
_cell_angle_beta     100.229
_cell_angle_gamma    89.3659

_symmetry_space_group_name_H-M    "P 1"
_symmetry_int_tables_number       1

loop_
  _symmetry_equiv_pos_as_xyz
  'x, y, z'

loop_
  _atom_site_label
  _atom_site_occupancy
  _atom_site_fract_x
  _atom_site_fract_y
  _atom_site_fract_z
  _atom_site_thermal_displace_type
  _atom_site_B_iso_or_equiv
  _atom_site_type_symbol
  C1       1.0000 0.22694  0.20112  0.56080  Biso   1.000  C 
  C2       1.0000 0.67071  0.21350  0.69842  Biso   1.000  C 
  C3       1.0000 0.90704  0.68636  0.08955  Biso   1.000  C 
  C4       1.0000 0.28822  0.84066  0.32406  Biso   1.000  C 
  C5       1.0000 0.90160  0.78097  0.28439  Biso   1.000  C 
  C6       1.0000 0.05847  0.78902  0.26163  Biso   1.000  C 
  C7       1.0000 0.03719  0.93327  0.41018  Biso   1.000  C 
  C8       1.0000 0.25282  0.81880  0.28253  Biso   1.000  C 
  C9       1.0000 0.16686  0.86642  0.38968  Biso   1.000  C 
  C10      1.0000 0.43402  0.18935  0.32126  Biso   1.000  C 
  C11      1.0000 0.61955  0.21818  0.34619  Biso   1.000  C 
  C12      1.0000 0.76778  0.27305  0.32765  Biso   1.000  C 
  C13      1.0000 0.73325  0.29627  0.28620  Biso   1.000  C 
  C14      1.0000 0.33799  0.70014  0.91808  Biso   1.000  C 
  C15      1.0000 0.16021  0.68489  0.88907  Biso   1.000  C 
  C16      1.0000 0.34511  0.85289  0.41866  Biso   1.000  C 
  C17      1.0000 0.02122  0.76713  0.21749  Biso   1.000  C 
  C18      1.0000 0.13061  0.83382  0.34668  Biso   1.000  C 
  C19      1.0000 0.13557  0.69085  0.15701  Biso   1.000  C 
  C20      1.0000 0.83508  0.79789  0.19285  Biso   1.000  C 
  C21      1.0000 0.40682  0.36740  0.08927  Biso   1.000  C 
  C22      1.0000 0.44276  0.33467  0.13222  Biso   1.000  C 
  C23      1.0000 0.83722  0.20049  0.41814  Biso   1.000  C 
  C24      1.0000 0.51287  0.28853  0.21715  Biso   1.000  C 
  C25      1.0000 0.67129  0.28093  0.19468  Biso   1.000  C 
  C26      1.0000 0.63718  0.30348  0.15318  Biso   1.000  C 
  C27      1.0000 0.94813  0.71979  0.13244  Biso   1.000  C 
  C28      1.0000 0.28373  0.34119  0.15455  Biso   1.000  C 
  C29      1.0000 0.31813  0.31867  0.19602  Biso   1.000  C 
  C30      1.0000 0.54894  0.26591  0.26121  Biso   1.000  C 
  C31      1.0000 0.39981  0.21252  0.27985  Biso   1.000  C 
  C32      1.0000 0.17101  0.71381  0.19845  Biso   1.000  C 
  C33      1.0000 0.79933  0.77485  0.15136  Biso   1.000  C 
  C34      1.0000 0.93670  0.80287  0.32596  Biso   1.000  C 
  C35      1.0000 0.03399  0.61891  0.06854  Biso   1.000  C 
  C36      1.0000 0.63512  0.19071  0.65697  Biso   1.000  C 
  C37      1.0000 0.65968  0.18511  0.38908  Biso   1.000  C 
  C38      1.0000 0.72900  0.85376  0.56013  Biso   1.000  C 
  C39      1.0000 0.43756  0.30237  0.82604  Biso   1.000  C 
  C40      1.0000 0.40206  0.28052  0.78448  Biso   1.000  C 
  C41      1.0000 0.55870  0.28864  0.76165  Biso   1.000  C 
  C42      1.0000 0.53830  0.43297  0.91018  Biso   1.000  C 
  C43      1.0000 0.66796  0.36606  0.88969  Biso   1.000  C 
  C44      1.0000 0.84621  0.35255  0.91868  Biso   1.000  C 
  C45      1.0000 0.53453  0.11745  0.40985  Biso   1.000  C 
  C46      1.0000 0.04866  0.76604  0.76122  Biso   1.000  C 
  C47      1.0000 0.93407  0.68936  0.82129  Biso   1.000  C 
  C48      1.0000 0.11976  0.71807  0.84619  Biso   1.000  C 
  C49      1.0000 0.26783  0.77302  0.82763  Biso   1.000  C 
  C50      1.0000 0.40647  0.18663  0.58954  Biso   1.000  C 
  C51      1.0000 0.03518  0.61728  0.90989  Biso   1.000  C 
  C52      1.0000 0.53466  0.43424  0.06896  Biso   1.000  C 
  C53      1.0000 0.89962  0.71266  0.77989  Biso   1.000  C 
  C54      1.0000 0.78897  0.34015  0.82404  Biso   1.000  C 
  C55      1.0000 0.53332  0.11925  0.56848  Biso   1.000  C 
  C56      1.0000 0.52112  0.26687  0.71750  Biso   1.000  C 
  C57      1.0000 0.23307  0.79634  0.78618  Biso   1.000  C 
  C58      1.0000 0.90610  0.86760  0.58927  Biso   1.000  C 
  C59      1.0000 0.63159  0.33334  0.84670  Biso   1.000  C 
  C60      1.0000 0.01245  0.78867  0.71715  Biso   1.000  C 
  C61      1.0000 0.17080  0.78109  0.69466  Biso   1.000  C 
  C62      1.0000 0.75318  0.31834  0.78250  Biso   1.000  C 
  C63      1.0000 0.94214  0.83483  0.63222  Biso   1.000  C 
  C64      1.0000 0.72763  0.70086  0.06079  Biso   1.000  C 
  C65      1.0000 0.81767  0.81877  0.69604  Biso   1.000  C 
  C66      1.0000 0.33498  0.29782  0.69290  Biso   1.000  C 
  C67      1.0000 0.29909  0.27497  0.65140  Biso   1.000  C 
  C68      1.0000 0.44771  0.21990  0.63244  Biso   1.000  C 
  C69      1.0000 0.13660  0.80364  0.65316  Biso   1.000  C 
  C70      1.0000 0.22987  0.35346  0.06010  Biso   1.000  C 
  C71      1.0000 0.78318  0.84131  0.65457  Biso   1.000  C 
  C72      1.0000 0.03389  0.93439  0.56893  Biso   1.000  C 
  Co1      1.0000 0.03394  0.05639  0.48952  Biso   1.000  Co
  Co2      1.0000 0.53490  0.55611  0.98950  Biso   1.000  Co
  Co3      1.0000 0.03603  0.49793  0.98932  Biso   1.000  Co
  Co4      1.0000 0.53501  0.99819  0.48931  Biso   1.000  Co
  H1       1.0000 0.85062  0.34048  0.27301  Biso   1.000  H 
  H2       1.0000 0.21717  0.34219  0.70643  Biso   1.000  H 
  H3       1.0000 0.47842  0.74450  0.91544  Biso   1.000  H 
  H4       1.0000 0.69272  0.82911  0.71271  Biso   1.000  H 
  H5       1.0000 0.18774  0.58630  0.07869  Biso   1.000  H 
  H6       1.0000 0.41326  0.79755  0.84583  Biso   1.000  H 
  H7       1.0000 0.81578  0.64538  0.83425  Biso   1.000  H 
  H8       1.0000 0.63221  0.86937  0.63939  Biso   1.000  H 
  H9       1.0000 0.26179  0.79518  0.63645  Biso   1.000  H 
  H10      1.0000 0.58892  0.80859  0.56255  Biso   1.000  H 
  H11      1.0000 0.31378  0.29360  0.84302  Biso   1.000  H 
  H12      1.0000 0.58552  0.74486  0.06365  Biso   1.000  H 
  H13      1.0000 0.81540  0.18590  0.71659  Biso   1.000  H 
  H14      1.0000 0.75629  0.68556  0.76144  Biso   1.000  H 
  H15      1.0000 0.25098  0.25394  0.76949  Biso   1.000  H 
  H16      1.0000 0.87668  0.32897  0.76557  Biso   1.000  H 
  H17      1.0000 0.75397  0.14665  0.64370  Biso   1.000  H 
  H18      1.0000 0.38561  0.46611  0.89910  Biso   1.000  H 
  H19      1.0000 0.93946  0.36797  0.83901  Biso   1.000  H 
  H20      1.0000 0.98781  0.30736  0.91614  Biso   1.000  H 
  H21      1.0000 0.15238  0.30000  0.63347  Biso   1.000  H 
  H22      1.0000 0.88301  0.58421  0.89955  Biso   1.000  H 
  H23      1.0000 0.97766  0.24495  0.41555  Biso   1.000  H 
  H24      1.0000 0.18521  0.96767  0.58013  Biso   1.000  H 
  H25      1.0000 0.91314  0.29763  0.34587  Biso   1.000  H 
  H26      1.0000 0.08484  0.24510  0.56369  Biso   1.000  H 
  H27      1.0000 0.68593  0.46756  0.08019  Biso   1.000  H 
  H28      1.0000 0.82280  0.25410  0.20989  Biso   1.000  H 
  H29      1.0000 0.88448  0.96643  0.39911  Biso   1.000  H 
  H30      1.0000 0.68714  0.08668  0.57858  Biso   1.000  H 
  H31      1.0000 0.38248  0.08430  0.39947  Biso   1.000  H 
  H32      1.0000 0.71712  0.84222  0.20634  Biso   1.000  H 
  H33      1.0000 0.75061  0.75434  0.26936  Biso   1.000  H 
  H34      1.0000 0.31573  0.68636  0.21664  Biso   1.000  H 
  H35      1.0000 0.37651  0.82945  0.26565  Biso   1.000  H 
  H36      1.0000 0.65259  0.79971  0.13341  Biso   1.000  H 
  H37      1.0000 0.08979  0.30826  0.06250  Biso   1.000  H 
  H38      1.0000 0.81271  0.79408  0.34288  Biso   1.000  H 
  H39      1.0000 0.35037  0.84059  0.77298  Biso   1.000  H 
  H40      1.0000 0.25456  0.64682  0.14377  Biso   1.000  H 
  H41      1.0000 0.48673  0.80777  0.41610  Biso   1.000  H 
  H42      1.0000 0.32233  0.75425  0.70986  Biso   1.000  H 
  H43      1.0000 0.13279  0.36928  0.13937  Biso   1.000  H 
  H44      1.0000 0.43862  0.86854  0.33907  Biso   1.000  H 
  H45      1.0000 0.31568  0.14539  0.33420  Biso   1.000  H 
  H46      1.0000 0.19319  0.32905  0.21269  Biso   1.000  H 
  H47      1.0000 0.25662  0.18532  0.26138  Biso   1.000  H 
  H48      1.0000 0.76240  0.29502  0.13647  Biso   1.000  H 
  N1       1.0000 0.93737  0.96027  0.53095  Biso   1.000  N 
  N2       1.0000 0.63221  0.09294  0.44778  Biso   1.000  N 
  N3       1.0000 0.74924  0.90969  0.52532  Biso   1.000  N 
  N4       1.0000 0.82476  0.40882  0.95353  Biso   1.000  N 
  N5       1.0000 0.43496  0.09404  0.53072  Biso   1.000  N 
  N6       1.0000 0.63471  0.45926  0.94808  Biso   1.000  N 
  N7       1.0000 0.24522  0.14483  0.52579  Biso   1.000  N 
  N8       1.0000 0.74612  0.64454  0.02580  Biso   1.000  N 
  N9       1.0000 0.32368  0.90911  0.45351  Biso   1.000  N 
  N10      1.0000 0.13360  0.95952  0.44808  Biso   1.000  N 
  N11      1.0000 0.43830  0.46006  0.03096  Biso   1.000  N 
  N12      1.0000 0.13311  0.59272  0.94779  Biso   1.000  N 
  N13      1.0000 0.93583  0.59370  0.03077  Biso   1.000  N 
  N14      1.0000 0.25024  0.40939  0.02530  Biso   1.000  N 
  N15      1.0000 0.81962  0.14443  0.45307  Biso   1.000  N 
  N16      1.0000 0.32061  0.64410  0.95303  Biso   1.000  N 
