data_image0
_cell_length_a       6.9588
_cell_length_b       24.5298
_cell_length_c       25.6391
_cell_angle_alpha    89.984
_cell_angle_beta     99.0725
_cell_angle_gamma    90.0577

_symmetry_space_group_name_H-M    "P 1"
_symmetry_int_tables_number       1

loop_
  _symmetry_equiv_pos_as_xyz
  'x, y, z'

loop_
  _atom_site_label
  _atom_site_occupancy
  _atom_site_fract_x
  _atom_site_fract_y
  _atom_site_fract_z
  _atom_site_thermal_displace_type
  _atom_site_B_iso_or_equiv
  _atom_site_type_symbol
  C1       1.0000 0.21195  0.12186  0.56496  Biso   1.000  C 
  C2       1.0000 0.89110  0.63378  0.09682  Biso   1.000  C 
  C3       1.0000 0.28235  0.85977  0.31338  Biso   1.000  C 
  C4       1.0000 0.13753  0.87841  0.34166  Biso   1.000  C 
  C5       1.0000 0.91075  0.81577  0.28979  Biso   1.000  C 
  C6       1.0000 0.05542  0.79707  0.26146  Biso   1.000  C 
  C7       1.0000 0.04955  0.95682  0.40082  Biso   1.000  C 
  C8       1.0000 0.24230  0.82010  0.27441  Biso   1.000  C 
  C9       1.0000 0.17946  0.92004  0.38275  Biso   1.000  C 
  C10      1.0000 0.45310  0.17947  0.30920  Biso   1.000  C 
  C11      1.0000 0.63818  0.17537  0.34040  Biso   1.000  C 
  C12      1.0000 0.78134  0.21269  0.32993  Biso   1.000  C 
  C13      1.0000 0.74148  0.25186  0.29048  Biso   1.000  C 
  C14      1.0000 0.35942  0.62218  0.91356  Biso   1.000  C 
  C15      1.0000 0.17990  0.63423  0.88194  Biso   1.000  C 
  C16      1.0000 0.35944  0.93279  0.41373  Biso   1.000  C 
  C17      1.0000 0.01316  0.75521  0.21981  Biso   1.000  C 
  C18      1.0000 0.95074  0.85532  0.32889  Biso   1.000  C 
  C19      1.0000 0.11700  0.67880  0.16998  Biso   1.000  C 
  C20      1.0000 0.43254  0.37883  0.13710  Biso   1.000  C 
  C21      1.0000 0.39101  0.42025  0.09581  Biso   1.000  C 
  C22      1.0000 0.67990  0.13424  0.38195  Biso   1.000  C 
  C23      1.0000 0.85942  0.12219  0.41357  Biso   1.000  C 
  C24      1.0000 0.51415  0.29782  0.21765  Biso   1.000  C 
  C25      1.0000 0.65891  0.31636  0.18922  Biso   1.000  C 
  C26      1.0000 0.61914  0.35573  0.14994  Biso   1.000  C 
  C27      1.0000 0.82826  0.75097  0.18857  Biso   1.000  C 
  C28      1.0000 0.28764  0.36037  0.16550  Biso   1.000  C 
  C29      1.0000 0.32745  0.32085  0.20464  Biso   1.000  C 
  C30      1.0000 0.55635  0.25605  0.25937  Biso   1.000  C 
  C31      1.0000 0.41326  0.21875  0.26983  Biso   1.000  C 
  C32      1.0000 0.93227  0.67472  0.13858  Biso   1.000  C 
  C33      1.0000 0.78886  0.71188  0.14903  Biso   1.000  C 
  C34      1.0000 0.15633  0.71798  0.20943  Biso   1.000  C 
  C35      1.0000 0.02077  0.59692  0.07864  Biso   1.000  C 
  C36      1.0000 0.65636  0.21800  0.70942  Biso   1.000  C 
  C37      1.0000 0.52134  0.45683  0.07749  Biso   1.000  C 
  C38      1.0000 0.71118  0.93296  0.56482  Biso   1.000  C 
  C39      1.0000 0.45073  0.35532  0.82889  Biso   1.000  C 
  C40      1.0000 0.41075  0.31577  0.78979  Biso   1.000  C 
  C41      1.0000 0.55542  0.29708  0.76145  Biso   1.000  C 
  C42      1.0000 0.54953  0.45682  0.90082  Biso   1.000  C 
  C43      1.0000 0.67945  0.42004  0.88274  Biso   1.000  C 
  C44      1.0000 0.85943  0.43279  0.91373  Biso   1.000  C 
  C45      1.0000 0.55040  0.09722  0.40009  Biso   1.000  C 
  C46      1.0000 0.05641  0.75602  0.75934  Biso   1.000  C 
  C47      1.0000 0.95312  0.67946  0.80918  Biso   1.000  C 
  C48      1.0000 0.13820  0.67536  0.84038  Biso   1.000  C 
  C49      1.0000 0.28139  0.71266  0.82990  Biso   1.000  C 
  C50      1.0000 0.52083  0.09692  0.57864  Biso   1.000  C 
  C51      1.0000 0.39116  0.13380  0.59681  Biso   1.000  C 
  C52      1.0000 0.05039  0.59721  0.90007  Biso   1.000  C 
  C53      1.0000 0.91330  0.71874  0.76982  Biso   1.000  C 
  C54      1.0000 0.78233  0.35979  0.81336  Biso   1.000  C 
  C55      1.0000 0.24156  0.75183  0.79044  Biso   1.000  C 
  C56      1.0000 0.51317  0.25523  0.71980  Biso   1.000  C 
  C57      1.0000 0.63752  0.37842  0.84165  Biso   1.000  C 
  C58      1.0000 0.89107  0.92024  0.59579  Biso   1.000  C 
  C59      1.0000 0.71189  0.62186  0.06497  Biso   1.000  C 
  C60      1.0000 0.01421  0.79780  0.71762  Biso   1.000  C 
  C61      1.0000 0.15897  0.81633  0.68919  Biso   1.000  C 
  C62      1.0000 0.74228  0.32012  0.77439  Biso   1.000  C 
  C63      1.0000 0.93262  0.87881  0.63708  Biso   1.000  C 
  C64      1.0000 0.02139  0.95682  0.57748  Biso   1.000  C 
  C65      1.0000 0.82753  0.82084  0.70462  Biso   1.000  C 
  C66      1.0000 0.32827  0.25098  0.68856  Biso   1.000  C 
  C67      1.0000 0.28889  0.21188  0.64901  Biso   1.000  C 
  C68      1.0000 0.43232  0.17474  0.63857  Biso   1.000  C 
  C69      1.0000 0.21111  0.43297  0.06483  Biso   1.000  C 
  C70      1.0000 0.61705  0.17882  0.66997  Biso   1.000  C 
  C71      1.0000 0.78773  0.86036  0.66549  Biso   1.000  C 
  C72      1.0000 0.11921  0.85570  0.64991  Biso   1.000  C 
  Co1      1.0000 0.53572  0.53556  0.98909  Biso   1.000  Co
  Co2      1.0000 0.03576  0.03556  0.48909  Biso   1.000  Co
  Co3      1.0000 0.53563  0.01958  0.48919  Biso   1.000  Co
  Co4      1.0000 0.03559  0.51958  0.98919  Biso   1.000  Co
  H1       1.0000 0.50223  0.64000  0.91337  Biso   1.000  H 
  H2       1.0000 0.85526  0.28079  0.28455  Biso   1.000  H 
  H3       1.0000 0.00223  0.14001  0.41338  Biso   1.000  H 
  H4       1.0000 0.71274  0.80862  0.72670  Biso   1.000  H 
  H5       1.0000 0.17595  0.59124  0.09120  Biso   1.000  H 
  H6       1.0000 0.42618  0.71160  0.85353  Biso   1.000  H 
  H7       1.0000 0.83845  0.65088  0.81527  Biso   1.000  H 
  H8       1.0000 0.64262  0.87833  0.65763  Biso   1.000  H 
  H9       1.0000 0.23375  0.86788  0.62770  Biso   1.000  H 
  H10      1.0000 0.56889  0.91469  0.56473  Biso   1.000  H 
  H11      1.0000 0.80024  0.21897  0.73352  Biso   1.000  H 
  H12      1.0000 0.56909  0.63961  0.06508  Biso   1.000  H 
  H13      1.0000 0.17644  0.96246  0.59042  Biso   1.000  H 
  H14      1.0000 0.00147  0.41439  0.91396  Biso   1.000  H 
  H15      1.0000 0.33619  0.36765  0.85100  Biso   1.000  H 
  H16      1.0000 0.92755  0.37775  0.82117  Biso   1.000  H 
  H17      1.0000 0.39461  0.46251  0.88780  Biso   1.000  H 
  H18      1.0000 0.14434  0.21080  0.62526  Biso   1.000  H 
  H19      1.0000 0.85700  0.30779  0.75237  Biso   1.000  H 
  H20      1.0000 0.26551  0.29783  0.78206  Biso   1.000  H 
  H21      1.0000 0.73181  0.15032  0.66395  Biso   1.000  H 
  H22      1.0000 0.76915  0.71967  0.74584  Biso   1.000  H 
  H23      1.0000 0.89510  0.59156  0.88766  Biso   1.000  H 
  H24      1.0000 0.21434  0.27982  0.69444  Biso   1.000  H 
  H25      1.0000 0.89463  0.96252  0.38781  Biso   1.000  H 
  H26      1.0000 0.23174  0.65029  0.16396  Biso   1.000  H 
  H27      1.0000 0.06882  0.41470  0.06474  Biso   1.000  H 
  H28      1.0000 0.67638  0.46246  0.09043  Biso   1.000  H 
  H29      1.0000 0.80400  0.29840  0.19698  Biso   1.000  H 
  H30      1.0000 0.67601  0.09125  0.59120  Biso   1.000  H 
  H31      1.0000 0.39511  0.09156  0.38768  Biso   1.000  H 
  H32      1.0000 0.71435  0.77982  0.19445  Biso   1.000  H 
  H33      1.0000 0.76550  0.79784  0.28206  Biso   1.000  H 
  H34      1.0000 0.30020  0.71894  0.23354  Biso   1.000  H 
  H35      1.0000 0.35704  0.80775  0.25241  Biso   1.000  H 
  H36      1.0000 0.64430  0.71081  0.12527  Biso   1.000  H 
  H37      1.0000 0.06914  0.13962  0.56507  Biso   1.000  H 
  H38      1.0000 0.83618  0.86767  0.35099  Biso   1.000  H 
  H39      1.0000 0.92614  0.21164  0.35356  Biso   1.000  H 
  H40      1.0000 0.26913  0.21967  0.24585  Biso   1.000  H 
  H41      1.0000 0.21266  0.30862  0.22671  Biso   1.000  H 
  H42      1.0000 0.33846  0.15088  0.31527  Biso   1.000  H 
  H43      1.0000 0.42760  0.87772  0.32120  Biso   1.000  H 
  H44      1.0000 0.73368  0.36790  0.12773  Biso   1.000  H 
  H45      1.0000 0.30403  0.79835  0.69693  Biso   1.000  H 
  H46      1.0000 0.35535  0.78075  0.78451  Biso   1.000  H 
  H47      1.0000 0.50148  0.91439  0.41396  Biso   1.000  H 
  H48      1.0000 0.14251  0.37832  0.15763  Biso   1.000  H 
  N1       1.0000 0.73379  0.97365  0.53081  Biso   1.000  N 
  N2       1.0000 0.83720  0.47366  0.94752  Biso   1.000  N 
  N3       1.0000 0.23430  0.08138  0.53080  Biso   1.000  N 
  N4       1.0000 0.42563  0.06590  0.53929  Biso   1.000  N 
  N5       1.0000 0.64552  0.48875  0.93932  Biso   1.000  N 
  N6       1.0000 0.92568  0.98863  0.53885  Biso   1.000  N 
  N7       1.0000 0.23374  0.47365  0.03082  Biso   1.000  N 
  N8       1.0000 0.83737  0.08151  0.44757  Biso   1.000  N 
  N9       1.0000 0.92558  0.56590  0.03929  Biso   1.000  N 
  N10      1.0000 0.33722  0.97366  0.44752  Biso   1.000  N 
  N11      1.0000 0.14555  0.98875  0.43933  Biso   1.000  N 
  N12      1.0000 0.42564  0.48863  0.03886  Biso   1.000  N 
  N13      1.0000 0.73425  0.58138  0.03080  Biso   1.000  N 
  N14      1.0000 0.14591  0.56601  0.93920  Biso   1.000  N 
  N15      1.0000 0.64593  0.06601  0.43920  Biso   1.000  N 
  N16      1.0000 0.33735  0.58150  0.94757  Biso   1.000  N 
