data_image0
_cell_length_a       6.49144
_cell_length_b       18.3855
_cell_length_c       29.7859
_cell_angle_alpha    89.9946
_cell_angle_beta     92.8874
_cell_angle_gamma    90.0508

_symmetry_space_group_name_H-M    "P 1"
_symmetry_int_tables_number       1

loop_
  _symmetry_equiv_pos_as_xyz
  'x, y, z'

loop_
  _atom_site_label
  _atom_site_occupancy
  _atom_site_fract_x
  _atom_site_fract_y
  _atom_site_fract_z
  _atom_site_thermal_displace_type
  _atom_site_B_iso_or_equiv
  _atom_site_type_symbol
  C1       1.0000 0.21569  0.14875  0.56198  Biso   1.000  C 
  C2       1.0000 0.38755  0.14343  0.59268  Biso   1.000  C 
  C3       1.0000 0.51082  0.08974  0.57367  Biso   1.000  C 
  C4       1.0000 0.24373  0.76683  0.78613  Biso   1.000  C 
  C5       1.0000 0.28598  0.72996  0.82631  Biso   1.000  C 
  C6       1.0000 0.13990  0.68284  0.84416  Biso   1.000  C 
  C7       1.0000 0.94971  0.67462  0.81978  Biso   1.000  C 
  C8       1.0000 0.90822  0.71117  0.77951  Biso   1.000  C 
  C9       1.0000 0.05427  0.75821  0.76158  Biso   1.000  C 
  C10      1.0000 0.85900  0.40556  0.91548  Biso   1.000  C 
  C11      1.0000 0.68594  0.40999  0.88520  Biso   1.000  C 
  C12      1.0000 0.55813  0.46139  0.90494  Biso   1.000  C 
  C13      1.0000 0.56005  0.29702  0.76001  Biso   1.000  C 
  C14      1.0000 0.40140  0.31426  0.78870  Biso   1.000  C 
  C15      1.0000 0.44278  0.35049  0.82911  Biso   1.000  C 
  C16      1.0000 0.55854  0.08957  0.40518  Biso   1.000  C 
  C17      1.0000 0.80396  0.35380  0.81438  Biso   1.000  C 
  C18      1.0000 0.64488  0.37110  0.84289  Biso   1.000  C 
  C19      1.0000 0.51628  0.25854  0.71715  Biso   1.000  C 
  C20      1.0000 0.21220  0.40561  0.06345  Biso   1.000  C 
  C21      1.0000 0.76665  0.85322  0.66433  Biso   1.000  C 
  C22      1.0000 0.62099  0.17510  0.65894  Biso   1.000  C 
  C23      1.0000 0.43054  0.18303  0.63462  Biso   1.000  C 
  C24      1.0000 0.28425  0.22992  0.65252  Biso   1.000  C 
  C25      1.0000 0.32657  0.26686  0.69267  Biso   1.000  C 
  C26      1.0000 0.80837  0.81704  0.70477  Biso   1.000  C 
  C27      1.0000 0.12797  0.85053  0.64972  Biso   1.000  C 
  C28      1.0000 0.92581  0.87087  0.63589  Biso   1.000  C 
  C29      1.0000 0.76216  0.31768  0.77391  Biso   1.000  C 
  C30      1.0000 0.16927  0.81424  0.69011  Biso   1.000  C 
  C31      1.0000 0.01052  0.79668  0.71873  Biso   1.000  C 
  C32      1.0000 0.01230  0.96134  0.57386  Biso   1.000  C 
  C33      1.0000 0.88460  0.90985  0.59364  Biso   1.000  C 
  C34      1.0000 0.71663  0.64884  0.06186  Biso   1.000  C 
  C35      1.0000 0.71113  0.90548  0.56347  Biso   1.000  C 
  C36      1.0000 0.05958  0.58950  0.90511  Biso   1.000  C 
  C37      1.0000 0.66252  0.21171  0.69919  Biso   1.000  C 
  C38      1.0000 0.01170  0.58980  0.07362  Biso   1.000  C 
  C39      1.0000 0.18283  0.64328  0.88611  Biso   1.000  C 
  C40      1.0000 0.35468  0.64872  0.91682  Biso   1.000  C 
  C41      1.0000 0.74344  0.26687  0.28622  Biso   1.000  C 
  C42      1.0000 0.78540  0.23000  0.32641  Biso   1.000  C 
  C43      1.0000 0.63914  0.18291  0.34423  Biso   1.000  C 
  C44      1.0000 0.44904  0.17473  0.31979  Biso   1.000  C 
  C45      1.0000 0.35804  0.90571  0.41543  Biso   1.000  C 
  C46      1.0000 0.18506  0.91022  0.38514  Biso   1.000  C 
  C47      1.0000 0.05722  0.96158  0.40492  Biso   1.000  C 
  C48      1.0000 0.05977  0.79718  0.25994  Biso   1.000  C 
  C49      1.0000 0.90103  0.81428  0.28864  Biso   1.000  C 
  C50      1.0000 0.14412  0.87138  0.34281  Biso   1.000  C 
  C51      1.0000 0.30328  0.85424  0.31427  Biso   1.000  C 
  C52      1.0000 0.88833  0.64350  0.09260  Biso   1.000  C 
  C53      1.0000 0.26173  0.81807  0.27381  Biso   1.000  C 
  C54      1.0000 0.01621  0.75863  0.21709  Biso   1.000  C 
  C55      1.0000 0.94218  0.85057  0.32904  Biso   1.000  C 
  C56      1.0000 0.12146  0.67528  0.15888  Biso   1.000  C 
  C57      1.0000 0.16277  0.71192  0.19913  Biso   1.000  C 
  C58      1.0000 0.78439  0.72986  0.15245  Biso   1.000  C 
  C59      1.0000 0.93100  0.68310  0.13455  Biso   1.000  C 
  C60      1.0000 0.40785  0.21129  0.27951  Biso   1.000  C 
  C61      1.0000 0.55409  0.25830  0.26162  Biso   1.000  C 
  C62      1.0000 0.30863  0.31720  0.20475  Biso   1.000  C 
  C63      1.0000 0.26720  0.35342  0.16431  Biso   1.000  C 
  C64      1.0000 0.82646  0.76681  0.19261  Biso   1.000  C 
  C65      1.0000 0.62863  0.35072  0.14982  Biso   1.000  C 
  C66      1.0000 0.66964  0.31438  0.19020  Biso   1.000  C 
  C67      1.0000 0.51069  0.29680  0.21876  Biso   1.000  C 
  C68      1.0000 0.85369  0.14876  0.41690  Biso   1.000  C 
  C69      1.0000 0.68190  0.14334  0.38619  Biso   1.000  C 
  C70      1.0000 0.51329  0.46151  0.07386  Biso   1.000  C 
  C71      1.0000 0.38555  0.41005  0.09365  Biso   1.000  C 
  C72      1.0000 0.42655  0.37109  0.13592  Biso   1.000  C 
  Co1      1.0000 0.53456  0.00306  0.48948  Biso   1.000  Co
  Co2      1.0000 0.03559  0.50305  0.98945  Biso   1.000  Co
  Co3      1.0000 0.03455  0.04857  0.48945  Biso   1.000  Co
  Co4      1.0000 0.53555  0.54859  0.98940  Biso   1.000  Co
  H1       1.0000 0.07457  0.37223  0.06493  Biso   1.000  H 
  H2       1.0000 0.66246  0.48273  0.08575  Biso   1.000  H 
  H3       1.0000 0.07924  0.18273  0.56291  Biso   1.000  H 
  H4       1.0000 0.65868  0.06753  0.58550  Biso   1.000  H 
  H5       1.0000 0.41069  0.06729  0.39331  Biso   1.000  H 
  H6       1.0000 0.71100  0.80399  0.20482  Biso   1.000  H 
  H7       1.0000 0.74364  0.79684  0.27976  Biso   1.000  H 
  H8       1.0000 0.31031  0.70294  0.21746  Biso   1.000  H 
  H9       1.0000 0.38754  0.80742  0.25179  Biso   1.000  H 
  H10      1.0000 0.63507  0.73773  0.13463  Biso   1.000  H 
  H11      1.0000 0.93445  0.23818  0.34431  Biso   1.000  H 
  H12      1.0000 0.81681  0.86158  0.35114  Biso   1.000  H 
  H13      1.0000 0.90823  0.98278  0.39296  Biso   1.000  H 
  H14      1.0000 0.49562  0.87238  0.41400  Biso   1.000  H 
  H15      1.0000 0.35879  0.80432  0.77398  Biso   1.000  H 
  H16      1.0000 0.32687  0.79721  0.69907  Biso   1.000  H 
  H17      1.0000 0.75423  0.36219  0.12785  Biso   1.000  H 
  H18      1.0000 0.10972  0.37040  0.15507  Biso   1.000  H 
  H19      1.0000 0.33163  0.13852  0.33227  Biso   1.000  H 
  H20      1.0000 0.18261  0.30619  0.22666  Biso   1.000  H 
  H21      1.0000 0.46064  0.87157  0.32342  Biso   1.000  H 
  H22      1.0000 0.26064  0.20200  0.26110  Biso   1.000  H 
  H23      1.0000 0.23914  0.63933  0.14632  Biso   1.000  H 
  H24      1.0000 0.82717  0.29734  0.19920  Biso   1.000  H 
  H25      1.0000 0.21134  0.30414  0.70489  Biso   1.000  H 
  H26      1.0000 0.76090  0.70186  0.76114  Biso   1.000  H 
  H27      1.0000 0.99020  0.18279  0.41596  Biso   1.000  H 
  H28      1.0000 0.49119  0.68277  0.91587  Biso   1.000  H 
  H29      1.0000 0.85864  0.30433  0.27411  Biso   1.000  H 
  H30      1.0000 0.68252  0.80605  0.72674  Biso   1.000  H 
  H31      1.0000 0.15950  0.56757  0.08549  Biso   1.000  H 
  H32      1.0000 0.43512  0.73816  0.84417  Biso   1.000  H 
  H33      1.0000 0.83242  0.63839  0.83229  Biso   1.000  H 
  H34      1.0000 0.60911  0.87019  0.65513  Biso   1.000  H 
  H35      1.0000 0.25339  0.86199  0.62770  Biso   1.000  H 
  H36      1.0000 0.57346  0.87213  0.56496  Biso   1.000  H 
  H37      1.0000 0.91176  0.56720  0.89325  Biso   1.000  H 
  H38      1.0000 0.58016  0.68282  0.06275  Biso   1.000  H 
  H39      1.0000 0.16148  0.98254  0.58575  Biso   1.000  H 
  H40      1.0000 0.99659  0.37223  0.91406  Biso   1.000  H 
  H41      1.0000 0.31750  0.36163  0.85121  Biso   1.000  H 
  H42      1.0000 0.96144  0.37096  0.82355  Biso   1.000  H 
  H43      1.0000 0.40914  0.48257  0.89298  Biso   1.000  H 
  H44      1.0000 0.13495  0.23791  0.63471  Biso   1.000  H 
  H45      1.0000 0.88791  0.30691  0.75189  Biso   1.000  H 
  H46      1.0000 0.80999  0.20261  0.71751  Biso   1.000  H 
  H47      1.0000 0.24387  0.29700  0.77980  Biso   1.000  H 
  H48      1.0000 0.73843  0.13905  0.64637  Biso   1.000  H 
  N1       1.0000 0.73800  0.60225  0.02736  Biso   1.000  N 
  N2       1.0000 0.42159  0.48564  0.03499  Biso   1.000  N 
  N3       1.0000 0.83233  0.10215  0.45141  Biso   1.000  N 
  N4       1.0000 0.14848  0.98558  0.44387  Biso   1.000  N 
  N5       1.0000 0.33319  0.95061  0.45067  Biso   1.000  N 
  N6       1.0000 0.91986  0.56566  0.03482  Biso   1.000  N 
  N7       1.0000 0.65042  0.06547  0.44398  Biso   1.000  N 
  N8       1.0000 0.23670  0.45064  0.02825  Biso   1.000  N 
  N9       1.0000 0.73556  0.95057  0.52829  Biso   1.000  N 
  N10      1.0000 0.92050  0.98553  0.53502  Biso   1.000  N 
  N11      1.0000 0.64947  0.48550  0.94386  Biso   1.000  N 
  N12      1.0000 0.41882  0.06559  0.53489  Biso   1.000  N 
  N13      1.0000 0.23690  0.10216  0.52747  Biso   1.000  N 
  N14      1.0000 0.83422  0.45055  0.95068  Biso   1.000  N 
  N15      1.0000 0.15152  0.56543  0.94391  Biso   1.000  N 
  N16      1.0000 0.33341  0.60213  0.95134  Biso   1.000  N 
