data_image0
_cell_length_a       6.51401
_cell_length_b       14.2824
_cell_length_c       32.114
_cell_angle_alpha    89.9792
_cell_angle_beta     96.067
_cell_angle_gamma    90.1769

_symmetry_space_group_name_H-M    "P 1"
_symmetry_int_tables_number       1

loop_
  _symmetry_equiv_pos_as_xyz
  'x, y, z'

loop_
  _atom_site_label
  _atom_site_occupancy
  _atom_site_fract_x
  _atom_site_fract_y
  _atom_site_fract_z
  _atom_site_thermal_displace_type
  _atom_site_B_iso_or_equiv
  _atom_site_type_symbol
  C1       1.0000 0.22353  0.17275  0.56075  Biso   1.000  C 
  C2       1.0000 0.04982  0.59796  0.90841  Biso   1.000  C 
  C3       1.0000 0.39690  0.16001  0.59035  Biso   1.000  C 
  C4       1.0000 0.52197  0.09790  0.57028  Biso   1.000  C 
  C5       1.0000 0.28360  0.74819  0.82662  Biso   1.000  C 
  C6       1.0000 0.13370  0.69761  0.84589  Biso   1.000  C 
  C7       1.0000 0.94240  0.68122  0.82220  Biso   1.000  C 
  C8       1.0000 0.90378  0.71285  0.78122  Biso   1.000  C 
  C9       1.0000 0.05403  0.76288  0.76183  Biso   1.000  C 
  C10      1.0000 0.85087  0.38065  0.91702  Biso   1.000  C 
  C11      1.0000 0.67575  0.39195  0.88787  Biso   1.000  C 
  C12      1.0000 0.54749  0.45163  0.90831  Biso   1.000  C 
  C13      1.0000 0.55605  0.29369  0.76079  Biso   1.000  C 
  C14      1.0000 0.39727  0.29894  0.78719  Biso   1.000  C 
  C15      1.0000 0.43651  0.32946  0.82839  Biso   1.000  C 
  C16      1.0000 0.54914  0.09798  0.40842  Biso   1.000  C 
  C17      1.0000 0.79567  0.35040  0.81888  Biso   1.000  C 
  C18      1.0000 0.24441  0.78012  0.78563  Biso   1.000  C 
  C19      1.0000 0.51537  0.26141  0.71708  Biso   1.000  C 
  C20      1.0000 0.13280  0.83146  0.65057  Biso   1.000  C 
  C21      1.0000 0.77349  0.85110  0.65999  Biso   1.000  C 
  C22      1.0000 0.21976  0.38114  0.06178  Biso   1.000  C 
  C23      1.0000 0.43747  0.19684  0.63286  Biso   1.000  C 
  C24      1.0000 0.28654  0.24615  0.65219  Biso   1.000  C 
  C25      1.0000 0.32485  0.27772  0.69326  Biso   1.000  C 
  C26      1.0000 0.81303  0.82086  0.70122  Biso   1.000  C 
  C27      1.0000 0.02295  0.95245  0.57045  Biso   1.000  C 
  C28      1.0000 0.93282  0.85722  0.63376  Biso   1.000  C 
  C29      1.0000 0.75602  0.32009  0.77767  Biso   1.000  C 
  C30      1.0000 0.17193  0.80108  0.69177  Biso   1.000  C 
  C31      1.0000 0.01304  0.79517  0.71814  Biso   1.000  C 
  C32      1.0000 0.72417  0.67268  0.06070  Biso   1.000  C 
  C33      1.0000 0.89387  0.89291  0.59098  Biso   1.000  C 
  C34      1.0000 0.63644  0.35599  0.84513  Biso   1.000  C 
  C35      1.0000 0.71890  0.88122  0.56180  Biso   1.000  C 
  C36      1.0000 0.52379  0.45239  0.07044  Biso   1.000  C 
  C37      1.0000 0.62877  0.18121  0.65660  Biso   1.000  C 
  C38      1.0000 0.02269  0.59791  0.07025  Biso   1.000  C 
  C39      1.0000 0.17511  0.66030  0.88831  Biso   1.000  C 
  C40      1.0000 0.34925  0.67284  0.91777  Biso   1.000  C 
  C41      1.0000 0.74453  0.27998  0.28566  Biso   1.000  C 
  C42      1.0000 0.78347  0.24810  0.32667  Biso   1.000  C 
  C43      1.0000 0.63333  0.19762  0.34592  Biso   1.000  C 
  C44      1.0000 0.44208  0.18130  0.32219  Biso   1.000  C 
  C45      1.0000 0.34997  0.88081  0.41698  Biso   1.000  C 
  C46      1.0000 0.17489  0.89217  0.38783  Biso   1.000  C 
  C47      1.0000 0.04665  0.95182  0.40830  Biso   1.000  C 
  C48      1.0000 0.05581  0.79380  0.26076  Biso   1.000  C 
  C49      1.0000 0.89692  0.79901  0.28714  Biso   1.000  C 
  C50      1.0000 0.29508  0.85072  0.31886  Biso   1.000  C 
  C51      1.0000 0.89750  0.65998  0.09031  Biso   1.000  C 
  C52      1.0000 0.66646  0.21250  0.69764  Biso   1.000  C 
  C53      1.0000 0.25567  0.82033  0.27766  Biso   1.000  C 
  C54      1.0000 0.01537  0.76144  0.21705  Biso   1.000  C 
  C55      1.0000 0.13573  0.85623  0.34509  Biso   1.000  C 
  C56      1.0000 0.12909  0.68127  0.15659  Biso   1.000  C 
  C57      1.0000 0.93592  0.82962  0.32832  Biso   1.000  C 
  C58      1.0000 0.78674  0.74606  0.15214  Biso   1.000  C 
  C59      1.0000 0.16662  0.71257  0.19764  Biso   1.000  C 
  C60      1.0000 0.40371  0.21291  0.28121  Biso   1.000  C 
  C61      1.0000 0.55416  0.26284  0.26183  Biso   1.000  C 
  C62      1.0000 0.31350  0.32088  0.20119  Biso   1.000  C 
  C63      1.0000 0.27413  0.35110  0.15995  Biso   1.000  C 
  C64      1.0000 0.93783  0.69681  0.13283  Biso   1.000  C 
  C65      1.0000 0.63345  0.33130  0.15057  Biso   1.000  C 
  C66      1.0000 0.67240  0.30093  0.19178  Biso   1.000  C 
  C67      1.0000 0.51342  0.29513  0.21813  Biso   1.000  C 
  C68      1.0000 0.84851  0.17291  0.41783  Biso   1.000  C 
  C69      1.0000 0.43356  0.35713  0.13374  Biso   1.000  C 
  C70      1.0000 0.67446  0.16034  0.38834  Biso   1.000  C 
  C71      1.0000 0.39474  0.39282  0.09095  Biso   1.000  C 
  C72      1.0000 0.82486  0.77768  0.19320  Biso   1.000  C 
  Co1      1.0000 0.03625  0.49701  0.98932  Biso   1.000  Co
  Co2      1.0000 0.53536  0.99705  0.48934  Biso   1.000  Co
  Co3      1.0000 0.53633  0.55355  0.98925  Biso   1.000  Co
  Co4      1.0000 0.03569  0.05361  0.48928  Biso   1.000  Co
  H1       1.0000 0.67400  0.48123  0.08166  Biso   1.000  H 
  H2       1.0000 0.82799  0.27879  0.20345  Biso   1.000  H 
  H3       1.0000 0.08010  0.34067  0.06424  Biso   1.000  H 
  H4       1.0000 0.67095  0.06809  0.58130  Biso   1.000  H 
  H5       1.0000 0.39960  0.06820  0.39749  Biso   1.000  H 
  H6       1.0000 0.70540  0.81719  0.20684  Biso   1.000  H 
  H7       1.0000 0.74140  0.77627  0.27551  Biso   1.000  H 
  H8       1.0000 0.31473  0.69683  0.21534  Biso   1.000  H 
  H9       1.0000 0.38091  0.82002  0.25764  Biso   1.000  H 
  H10      1.0000 0.63654  0.75978  0.13484  Biso   1.000  H 
  H11      1.0000 0.36292  0.82064  0.77201  Biso   1.000  H 
  H12      1.0000 0.81072  0.83115  0.34837  Biso   1.000  H 
  H13      1.0000 0.93356  0.26255  0.34395  Biso   1.000  H 
  H14      1.0000 0.25568  0.19651  0.26352  Biso   1.000  H 
  H15      1.0000 0.18820  0.32011  0.22119  Biso   1.000  H 
  H16      1.0000 0.32180  0.14196  0.33579  Biso   1.000  H 
  H17      1.0000 0.45021  0.87392  0.33061  Biso   1.000  H 
  H18      1.0000 0.75875  0.33329  0.13055  Biso   1.000  H 
  H19      1.0000 0.32760  0.77901  0.70342  Biso   1.000  H 
  H20      1.0000 0.48913  0.84040  0.41452  Biso   1.000  H 
  H21      1.0000 0.11894  0.37374  0.14818  Biso   1.000  H 
  H22      1.0000 0.25013  0.64288  0.14296  Biso   1.000  H 
  H23      1.0000 0.08512  0.21400  0.56272  Biso   1.000  H 
  H24      1.0000 0.89669  0.98053  0.39708  Biso   1.000  H 
  H25      1.0000 0.17311  0.98132  0.58168  Biso   1.000  H 
  H26      1.0000 0.90022  0.56821  0.89749  Biso   1.000  H 
  H27      1.0000 0.48809  0.71414  0.91573  Biso   1.000  H 
  H28      1.0000 0.86321  0.32041  0.27205  Biso   1.000  H 
  H29      1.0000 0.20556  0.31730  0.70692  Biso   1.000  H 
  H30      1.0000 0.68778  0.82003  0.72123  Biso   1.000  H 
  H31      1.0000 0.17170  0.56815  0.08128  Biso   1.000  H 
  H32      1.0000 0.43371  0.76271  0.84389  Biso   1.000  H 
  H33      1.0000 0.82227  0.64180  0.83582  Biso   1.000  H 
  H34      1.0000 0.61823  0.87368  0.64824  Biso   1.000  H 
  H35      1.0000 0.25803  0.83356  0.63054  Biso   1.000  H 
  H36      1.0000 0.57922  0.84079  0.56427  Biso   1.000  H 
  H37      1.0000 0.98739  0.21419  0.41580  Biso   1.000  H 
  H38      1.0000 0.58573  0.71390  0.06267  Biso   1.000  H 
  H39      1.0000 0.81460  0.19669  0.71532  Biso   1.000  H 
  H40      1.0000 0.75575  0.69639  0.76355  Biso   1.000  H 
  H41      1.0000 0.24166  0.27628  0.77559  Biso   1.000  H 
  H42      1.0000 0.88112  0.31973  0.75763  Biso   1.000  H 
  H43      1.0000 0.74967  0.14277  0.64294  Biso   1.000  H 
  H44      1.0000 0.39752  0.48031  0.89708  Biso   1.000  H 
  H45      1.0000 0.95092  0.37351  0.83060  Biso   1.000  H 
  H46      1.0000 0.31142  0.33102  0.84846  Biso   1.000  H 
  H47      1.0000 0.99007  0.34024  0.91458  Biso   1.000  H 
  H48      1.0000 0.13632  0.25993  0.63491  Biso   1.000  H 
  N1       1.0000 0.92962  0.57534  0.03206  Biso   1.000  N 
  N2       1.0000 0.14346  0.57518  0.94649  Biso   1.000  N 
  N3       1.0000 0.74541  0.62173  0.02594  Biso   1.000  N 
  N4       1.0000 0.43067  0.47489  0.03220  Biso   1.000  N 
  N5       1.0000 0.14032  0.97468  0.44647  Biso   1.000  N 
  N6       1.0000 0.32679  0.93018  0.45211  Biso   1.000  N 
  N7       1.0000 0.82744  0.12168  0.45255  Biso   1.000  N 
  N8       1.0000 0.24467  0.12179  0.52599  Biso   1.000  N 
  N9       1.0000 0.92985  0.97495  0.53222  Biso   1.000  N 
  N10      1.0000 0.64114  0.47454  0.94647  Biso   1.000  N 
  N11      1.0000 0.42883  0.07537  0.53209  Biso   1.000  N 
  N12      1.0000 0.82765  0.43007  0.95213  Biso   1.000  N 
  N13      1.0000 0.74292  0.93031  0.52659  Biso   1.000  N 
  N14      1.0000 0.64269  0.07522  0.44652  Biso   1.000  N 
  N15      1.0000 0.24373  0.43025  0.02658  Biso   1.000  N 
  N16      1.0000 0.32825  0.62162  0.95250  Biso   1.000  N 
