data_image0
_cell_length_a       6.95891
_cell_length_b       8.31284
_cell_length_c       34.3374
_cell_angle_alpha    89.8752
_cell_angle_beta     103.8
_cell_angle_gamma    89.8015

_symmetry_space_group_name_H-M    "P 1"
_symmetry_int_tables_number       1

loop_
  _symmetry_equiv_pos_as_xyz
  'x, y, z'

loop_
  _atom_site_label
  _atom_site_occupancy
  _atom_site_fract_x
  _atom_site_fract_y
  _atom_site_fract_z
  _atom_site_thermal_displace_type
  _atom_site_B_iso_or_equiv
  _atom_site_type_symbol
  C1       1.0000 0.24323  0.25537  0.56090  Biso   1.000  C 
  C2       1.0000 0.59224  0.14810  0.65877  Biso   1.000  C 
  C3       1.0000 0.62036  0.15515  0.70016  Biso   1.000  C 
  C4       1.0000 0.92100  0.73001  0.08997  Biso   1.000  C 
  C5       1.0000 0.90432  0.84127  0.28023  Biso   1.000  C 
  C6       1.0000 0.04867  0.77309  0.26256  Biso   1.000  C 
  C7       1.0000 0.02926  0.91169  0.41155  Biso   1.000  C 
  C8       1.0000 0.22030  0.71043  0.28875  Biso   1.000  C 
  C9       1.0000 0.15051  0.82845  0.39079  Biso   1.000  C 
  C10      1.0000 0.47531  0.14928  0.32009  Biso   1.000  C 
  C11      1.0000 0.60587  0.25553  0.34529  Biso   1.000  C 
  C12      1.0000 0.70184  0.37160  0.32689  Biso   1.000  C 
  C13      1.0000 0.67263  0.37789  0.28533  Biso   1.000  C 
  C14      1.0000 0.32622  0.75530  0.91769  Biso   1.000  C 
  C15      1.0000 0.14656  0.73351  0.88899  Biso   1.000  C 
  C16      1.0000 0.33084  0.81171  0.41973  Biso   1.000  C 
  C17      1.0000 0.02205  0.76882  0.21856  Biso   1.000  C 
  C18      1.0000 0.24912  0.72049  0.33018  Biso   1.000  C 
  C19      1.0000 0.09149  0.64586  0.15893  Biso   1.000  C 
  C20      1.0000 0.96281  0.75363  0.13344  Biso   1.000  C 
  C21      1.0000 0.42263  0.32483  0.08795  Biso   1.000  C 
  C22      1.0000 0.89784  0.87949  0.19308  Biso   1.000  C 
  C23      1.0000 0.82781  0.25463  0.41755  Biso   1.000  C 
  C24      1.0000 0.52164  0.27080  0.21619  Biso   1.000  C 
  C25      1.0000 0.66855  0.33376  0.19851  Biso   1.000  C 
  C26      1.0000 0.64034  0.34402  0.15712  Biso   1.000  C 
  C27      1.0000 0.11989  0.65295  0.20032  Biso   1.000  C 
  C28      1.0000 0.32082  0.22075  0.14861  Biso   1.000  C 
  C29      1.0000 0.34872  0.21156  0.19004  Biso   1.000  C 
  C30      1.0000 0.54708  0.26832  0.26015  Biso   1.000  C 
  C31      1.0000 0.44705  0.15527  0.27867  Biso   1.000  C 
  C32      1.0000 0.93370  0.85271  0.32161  Biso   1.000  C 
  C33      1.0000 0.86839  0.87204  0.15153  Biso   1.000  C 
  C34      1.0000 0.10876  0.79555  0.34774  Biso   1.000  C 
  C35      1.0000 0.04150  0.64971  0.06860  Biso   1.000  C 
  C36      1.0000 0.24292  0.30839  0.05889  Biso   1.000  C 
  C37      1.0000 0.46365  0.29128  0.13101  Biso   1.000  C 
  C38      1.0000 0.74413  0.80967  0.55910  Biso   1.000  C 
  C39      1.0000 0.43300  0.35385  0.82138  Biso   1.000  C 
  C40      1.0000 0.40409  0.34301  0.77999  Biso   1.000  C 
  C41      1.0000 0.54866  0.27500  0.76236  Biso   1.000  C 
  C42      1.0000 0.52801  0.41221  0.91134  Biso   1.000  C 
  C43      1.0000 0.64923  0.32887  0.89059  Biso   1.000  C 
  C44      1.0000 0.82939  0.31171  0.91956  Biso   1.000  C 
  C45      1.0000 0.52846  0.15310  0.41043  Biso   1.000  C 
  C46      1.0000 0.04534  0.77077  0.76037  Biso   1.000  C 
  C47      1.0000 0.97304  0.65148  0.82023  Biso   1.000  C 
  C48      1.0000 0.10388  0.75734  0.84549  Biso   1.000  C 
  C49      1.0000 0.20007  0.87352  0.82717  Biso   1.000  C 
  C50      1.0000 0.02680  0.65391  0.91058  Biso   1.000  C 
  C51      1.0000 0.54325  0.40939  0.06734  Biso   1.000  C 
  C52      1.0000 0.64838  0.23230  0.38881  Biso   1.000  C 
  C53      1.0000 0.94491  0.65777  0.77882  Biso   1.000  C 
  C54      1.0000 0.74832  0.22135  0.82999  Biso   1.000  C 
  C55      1.0000 0.42220  0.23225  0.58981  Biso   1.000  C 
  C56      1.0000 0.52255  0.27109  0.71838  Biso   1.000  C 
  C57      1.0000 0.54278  0.15175  0.56849  Biso   1.000  C 
  C58      1.0000 0.92366  0.82646  0.58820  Biso   1.000  C 
  C59      1.0000 0.17092  0.88014  0.78561  Biso   1.000  C 
  C60      1.0000 0.02055  0.77322  0.71642  Biso   1.000  C 
  C61      1.0000 0.16775  0.83644  0.69886  Biso   1.000  C 
  C62      1.0000 0.71995  0.21186  0.78856  Biso   1.000  C 
  C63      1.0000 0.96417  0.79322  0.63127  Biso   1.000  C 
  C64      1.0000 0.60779  0.29631  0.84752  Biso   1.000  C 
  C65      1.0000 0.84823  0.71347  0.69018  Biso   1.000  C 
  C66      1.0000 0.39886  0.38207  0.69289  Biso   1.000  C 
  C67      1.0000 0.36968  0.37468  0.65135  Biso   1.000  C 
  C68      1.0000 0.46395  0.25608  0.63327  Biso   1.000  C 
  C69      1.0000 0.04436  0.91094  0.56760  Biso   1.000  C 
  C70      1.0000 0.14031  0.84651  0.65748  Biso   1.000  C 
  C71      1.0000 0.82115  0.72239  0.64877  Biso   1.000  C 
  C72      1.0000 0.74215  0.75369  0.06106  Biso   1.000  C 
  Co1      1.0000 0.53521  0.57045  0.98938  Biso   1.000  Co
  Co2      1.0000 0.03647  0.07091  0.48945  Biso   1.000  Co
  Co3      1.0000 0.53680  0.00497  0.48950  Biso   1.000  Co
  Co4      1.0000 0.03536  0.50428  0.98944  Biso   1.000  Co
  H1       1.0000 0.32465  0.47722  0.70564  Biso   1.000  H 
  H2       1.0000 0.19620  0.95073  0.57813  Biso   1.000  H 
  H3       1.0000 0.74827  0.47104  0.27230  Biso   1.000  H 
  H4       1.0000 0.72988  0.66277  0.70220  Biso   1.000  H 
  H5       1.0000 0.19405  0.61009  0.07884  Biso   1.000  H 
  H6       1.0000 0.29936  0.96008  0.84559  Biso   1.000  H 
  H7       1.0000 0.89788  0.55804  0.83327  Biso   1.000  H 
  H8       1.0000 0.68351  0.67706  0.62976  Biso   1.000  H 
  H9       1.0000 0.25650  0.90118  0.64549  Biso   1.000  H 
  H10      1.0000 0.60558  0.75596  0.56163  Biso   1.000  H 
  H11      1.0000 0.26639  0.38949  0.76105  Biso   1.000  H 
  H12      1.0000 0.60375  0.80568  0.06452  Biso   1.000  H 
  H13      1.0000 0.31902  0.41228  0.83340  Biso   1.000  H 
  H14      1.0000 0.87410  0.61555  0.90053  Biso   1.000  H 
  H15      1.0000 0.96847  0.25868  0.91688  Biso   1.000  H 
  H16      1.0000 0.88483  0.17274  0.84895  Biso   1.000  H 
  H17      1.0000 0.27210  0.46276  0.63276  Biso   1.000  H 
  H18      1.0000 0.66564  0.05274  0.64592  Biso   1.000  H 
  H19      1.0000 0.83641  0.15770  0.77650  Biso   1.000  H 
  H20      1.0000 0.84804  0.56911  0.76070  Biso   1.000  H 
  H21      1.0000 0.37545  0.45148  0.90096  Biso   1.000  H 
  H22      1.0000 0.96608  0.30546  0.41390  Biso   1.000  H 
  H23      1.0000 0.46444  0.80622  0.91404  Biso   1.000  H 
  H24      1.0000 0.71543  0.06505  0.71846  Biso   1.000  H 
  H25      1.0000 0.24677  0.97333  0.77264  Biso   1.000  H 
  H26      1.0000 0.10434  0.25475  0.06143  Biso   1.000  H 
  H27      1.0000 0.80755  0.37675  0.21745  Biso   1.000  H 
  H28      1.0000 0.87655  0.95062  0.40119  Biso   1.000  H 
  H29      1.0000 0.80095  0.45843  0.34526  Biso   1.000  H 
  H30      1.0000 0.69546  0.11242  0.57877  Biso   1.000  H 
  H31      1.0000 0.37578  0.11468  0.40037  Biso   1.000  H 
  H32      1.0000 0.82357  0.97459  0.20583  Biso   1.000  H 
  H33      1.0000 0.76641  0.88749  0.26131  Biso   1.000  H 
  H34      1.0000 0.21540  0.56306  0.21862  Biso   1.000  H 
  H35      1.0000 0.33668  0.65617  0.27667  Biso   1.000  H 
  H36      1.0000 0.77051  0.95995  0.13295  Biso   1.000  H 
  H37      1.0000 0.69518  0.44899  0.07785  Biso   1.000  H 
  H38      1.0000 0.81984  0.91133  0.33363  Biso   1.000  H 
  H39      1.0000 0.23053  0.16109  0.20215  Biso   1.000  H 
  H40      1.0000 0.10473  0.30726  0.56433  Biso   1.000  H 
  H41      1.0000 0.35027  0.06643  0.26060  Biso   1.000  H 
  H42      1.0000 0.40036  0.05586  0.33319  Biso   1.000  H 
  H43      1.0000 0.75640  0.39842  0.14505  Biso   1.000  H 
  H44      1.0000 0.18267  0.17591  0.12968  Biso   1.000  H 
  H45      1.0000 0.30640  0.87976  0.71787  Biso   1.000  H 
  H46      1.0000 0.47002  0.75895  0.41703  Biso   1.000  H 
  H47      1.0000 0.16507  0.55063  0.14607  Biso   1.000  H 
  H48      1.0000 0.38592  0.67230  0.34913  Biso   1.000  H 
  N1       1.0000 0.63018  0.44581  0.94902  Biso   1.000  N 
  N2       1.0000 0.81726  0.18848  0.45307  Biso   1.000  N 
  N3       1.0000 0.94241  0.94550  0.52988  Biso   1.000  N 
  N4       1.0000 0.63060  0.12631  0.44857  Biso   1.000  N 
  N5       1.0000 0.81768  0.38370  0.95422  Biso   1.000  N 
  N6       1.0000 0.44145  0.12516  0.53035  Biso   1.000  N 
  N7       1.0000 0.75560  0.88292  0.52452  Biso   1.000  N 
  N8       1.0000 0.94017  0.62375  0.03042  Biso   1.000  N 
  N9       1.0000 0.13153  0.94569  0.44920  Biso   1.000  N 
  N10      1.0000 0.44111  0.44432  0.02967  Biso   1.000  N 
  N11      1.0000 0.12924  0.62642  0.94866  Biso   1.000  N 
  N12      1.0000 0.25423  0.38192  0.02433  Biso   1.000  N 
  N13      1.0000 0.31919  0.88391  0.45437  Biso   1.000  N 
  N14      1.0000 0.25466  0.18856  0.52557  Biso   1.000  N 
  N15      1.0000 0.75352  0.68740  0.02567  Biso   1.000  N 
  N16      1.0000 0.31594  0.68851  0.95316  Biso   1.000  N 
