data_image0
_cell_length_a       6.37112
_cell_length_b       6.85982
_cell_length_c       34.6462
_cell_angle_alpha    90.0073
_cell_angle_beta     107.274
_cell_angle_gamma    90.0016

_symmetry_space_group_name_H-M    "P 1"
_symmetry_int_tables_number       1

loop_
  _symmetry_equiv_pos_as_xyz
  'x, y, z'

loop_
  _atom_site_label
  _atom_site_occupancy
  _atom_site_fract_x
  _atom_site_fract_y
  _atom_site_fract_z
  _atom_site_thermal_displace_type
  _atom_site_B_iso_or_equiv
  _atom_site_type_symbol
  C1       1.0000 0.27279  0.32127  0.55788  Biso   1.000  C 
  C2       1.0000 0.27120  0.23241  0.05808  Biso   1.000  C 
  C3       1.0000 0.68627  0.22757  0.66226  Biso   1.000  C 
  C4       1.0000 0.70266  0.22421  0.70314  Biso   1.000  C 
  C5       1.0000 0.87500  0.84656  0.27581  Biso   1.000  C 
  C6       1.0000 0.04319  0.77335  0.26099  Biso   1.000  C 
  C7       1.0000 0.98582  0.89308  0.40800  Biso   1.000  C 
  C8       1.0000 0.22837  0.69354  0.28972  Biso   1.000  C 
  C9       1.0000 0.11203  0.78213  0.38877  Biso   1.000  C 
  C10      1.0000 0.39126  0.20938  0.31680  Biso   1.000  C 
  C11      1.0000 0.57822  0.28686  0.34544  Biso   1.000  C 
  C12      1.0000 0.74448  0.36380  0.33080  Biso   1.000  C 
  C13      1.0000 0.72733  0.36111  0.28991  Biso   1.000  C 
  C14      1.0000 0.29951  0.81925  0.92066  Biso   1.000  C 
  C15      1.0000 0.11015  0.77040  0.88891  Biso   1.000  C 
  C16      1.0000 0.30123  0.73299  0.42053  Biso   1.000  C 
  C17      1.0000 0.02705  0.78137  0.21756  Biso   1.000  C 
  C18      1.0000 0.95956  0.77203  0.08991  Biso   1.000  C 
  C19      1.0000 0.18594  0.72751  0.16222  Biso   1.000  C 
  C20      1.0000 0.20278  0.72390  0.20313  Biso   1.000  C 
  C21      1.0000 0.45911  0.28233  0.09003  Biso   1.000  C 
  C22      1.0000 0.99151  0.78958  0.13330  Biso   1.000  C 
  C23      1.0000 0.80096  0.31856  0.42063  Biso   1.000  C 
  C24      1.0000 0.52663  0.27300  0.21772  Biso   1.000  C 
  C25      1.0000 0.70271  0.32955  0.20330  Biso   1.000  C 
  C26      1.0000 0.68568  0.32618  0.16238  Biso   1.000  C 
  C27      1.0000 0.89139  0.84246  0.31669  Biso   1.000  C 
  C28      1.0000 0.31598  0.20604  0.14773  Biso   1.000  C 
  C29      1.0000 0.33317  0.21006  0.18859  Biso   1.000  C 
  C30      1.0000 0.54287  0.28040  0.26115  Biso   1.000  C 
  C31      1.0000 0.37509  0.20588  0.27592  Biso   1.000  C 
  C32      1.0000 0.07882  0.76556  0.34530  Biso   1.000  C 
  C33      1.0000 0.81718  0.84994  0.14762  Biso   1.000  C 
  C34      1.0000 0.24562  0.69013  0.33061  Biso   1.000  C 
  C35      1.0000 0.08567  0.65909  0.07098  Biso   1.000  C 
  C36      1.0000 0.18614  0.82689  0.66257  Biso   1.000  C 
  C37      1.0000 0.83426  0.84586  0.18848  Biso   1.000  C 
  C38      1.0000 0.77320  0.73172  0.55817  Biso   1.000  C 
  C39      1.0000 0.39037  0.34356  0.81656  Biso   1.000  C 
  C40      1.0000 0.37419  0.34735  0.77568  Biso   1.000  C 
  C41      1.0000 0.54255  0.27403  0.76092  Biso   1.000  C 
  C42      1.0000 0.48437  0.39409  0.90791  Biso   1.000  C 
  C43      1.0000 0.61060  0.28321  0.88867  Biso   1.000  C 
  C44      1.0000 0.79966  0.23382  0.92044  Biso   1.000  C 
  C45      1.0000 0.48570  0.15817  0.40810  Biso   1.000  C 
  C46      1.0000 0.04170  0.78142  0.76119  Biso   1.000  C 
  C47      1.0000 0.88991  0.71039  0.81680  Biso   1.000  C 
  C48      1.0000 0.07691  0.78767  0.84546  Biso   1.000  C 
  C49      1.0000 0.24329  0.86453  0.83085  Biso   1.000  C 
  C50      1.0000 0.58542  0.39477  0.07106  Biso   1.000  C 
  C51      1.0000 0.61163  0.26951  0.38888  Biso   1.000  C 
  C52      1.0000 0.49080  0.26520  0.13343  Biso   1.000  C 
  C53      1.0000 0.87371  0.70706  0.77592  Biso   1.000  C 
  C54      1.0000 0.74450  0.19095  0.83058  Biso   1.000  C 
  C55      1.0000 0.98406  0.65921  0.90812  Biso   1.000  C 
  C56      1.0000 0.52678  0.28194  0.71751  Biso   1.000  C 
  C57      1.0000 0.46059  0.27184  0.58989  Biso   1.000  C 
  C58      1.0000 0.96073  0.78211  0.59016  Biso   1.000  C 
  C59      1.0000 0.58694  0.15871  0.57104  Biso   1.000  C 
  C60      1.0000 0.02599  0.77384  0.71777  Biso   1.000  C 
  C61      1.0000 0.20235  0.83061  0.70345  Biso   1.000  C 
  C62      1.0000 0.72754  0.19420  0.78970  Biso   1.000  C 
  C63      1.0000 0.99178  0.76536  0.63355  Biso   1.000  C 
  C64      1.0000 0.22621  0.86190  0.78997  Biso   1.000  C 
  C65      1.0000 0.83307  0.71031  0.68859  Biso   1.000  C 
  C66      1.0000 0.33427  0.34655  0.68836  Biso   1.000  C 
  C67      1.0000 0.31761  0.35038  0.64751  Biso   1.000  C 
  C68      1.0000 0.49209  0.28967  0.63327  Biso   1.000  C 
  C69      1.0000 0.77148  0.82152  0.05796  Biso   1.000  C 
  C70      1.0000 0.08706  0.89467  0.57121  Biso   1.000  C 
  C71      1.0000 0.81665  0.70606  0.64775  Biso   1.000  C 
  C72      1.0000 0.57763  0.26664  0.84521  Biso   1.000  C 
  Co1      1.0000 0.03750  0.07984  0.48951  Biso   1.000  Co
  Co2      1.0000 0.53596  0.58038  0.98947  Biso   1.000  Co
  Co3      1.0000 0.03533  0.47203  0.98950  Biso   1.000  Co
  Co4      1.0000 0.53738  0.97142  0.48956  Biso   1.000  Co
  H1       1.0000 0.24491  0.96467  0.58426  Biso   1.000  H 
  H2       1.0000 0.85656  0.17428  0.72417  Biso   1.000  H 
  H3       1.0000 0.19188  0.39272  0.69726  Biso   1.000  H 
  H4       1.0000 0.69016  0.66533  0.69745  Biso   1.000  H 
  H5       1.0000 0.24371  0.58941  0.08400  Biso   1.000  H 
  H6       1.0000 0.39111  0.92557  0.85189  Biso   1.000  H 
  H7       1.0000 0.75576  0.64877  0.82641  Biso   1.000  H 
  H8       1.0000 0.66217  0.65934  0.62637  Biso   1.000  H 
  H9       1.0000 0.32708  0.87412  0.65320  Biso   1.000  H 
  H10      1.0000 0.62890  0.64795  0.55847  Biso   1.000  H 
  H11      1.0000 0.94507  0.15250  0.91985  Biso   1.000  H 
  H12      1.0000 0.62704  0.90501  0.05829  Biso   1.000  H 
  H13      1.0000 0.22729  0.41179  0.75508  Biso   1.000  H 
  H14      1.0000 0.94624  0.40009  0.42005  Biso   1.000  H 
  H15      1.0000 0.72730  0.64186  0.75532  Biso   1.000  H 
  H16      1.0000 0.86319  0.13373  0.78050  Biso   1.000  H 
  H17      1.0000 0.32534  0.46240  0.89515  Biso   1.000  H 
  H18      1.0000 0.16340  0.39782  0.62615  Biso   1.000  H 
  H19      1.0000 0.89270  0.13045  0.85159  Biso   1.000  H 
  H20      1.0000 0.82481  0.59123  0.89538  Biso   1.000  H 
  H21      1.0000 0.82671  0.17925  0.65285  Biso   1.000  H 
  H22      1.0000 0.44484  0.90070  0.92008  Biso   1.000  H 
  H23      1.0000 0.86228  0.42281  0.28067  Biso   1.000  H 
  H24      1.0000 0.25586  0.40445  0.82617  Biso   1.000  H 
  H25      1.0000 0.19044  0.16537  0.19754  Biso   1.000  H 
  H26      1.0000 0.74347  0.46449  0.08406  Biso   1.000  H 
  H27      1.0000 0.82668  0.96121  0.39524  Biso   1.000  H 
  H28      1.0000 0.89225  0.42498  0.35182  Biso   1.000  H 
  H29      1.0000 0.36130  0.92350  0.78076  Biso   1.000  H 
  H30      1.0000 0.74485  0.08894  0.58413  Biso   1.000  H 
  H31      1.0000 0.32658  0.08996  0.39536  Biso   1.000  H 
  H32      1.0000 0.69198  0.89183  0.19743  Biso   1.000  H 
  H33      1.0000 0.72813  0.91129  0.25525  Biso   1.000  H 
  H34      1.0000 0.35690  0.67412  0.22410  Biso   1.000  H 
  H35      1.0000 0.36395  0.63329  0.28047  Biso   1.000  H 
  H36      1.0000 0.66283  0.89742  0.12631  Biso   1.000  H 
  H37      1.0000 0.85735  0.37818  0.22431  Biso   1.000  H 
  H38      1.0000 0.75687  0.90313  0.32633  Biso   1.000  H 
  H39      1.0000 0.44657  0.65155  0.41994  Biso   1.000  H 
  H40      1.0000 0.12668  0.14904  0.05842  Biso   1.000  H 
  H41      1.0000 0.32626  0.67940  0.15275  Biso   1.000  H 
  H42      1.0000 0.35661  0.87972  0.72452  Biso   1.000  H 
  H43      1.0000 0.39403  0.62981  0.35159  Biso   1.000  H 
  H44      1.0000 0.82636  0.37329  0.15292  Biso   1.000  H 
  H45      1.0000 0.25712  0.14775  0.32641  Biso   1.000  H 
  H46      1.0000 0.22884  0.14037  0.25534  Biso   1.000  H 
  H47      1.0000 0.12830  0.40490  0.55812  Biso   1.000  H 
  H48      1.0000 0.16114  0.15968  0.12641  Biso   1.000  H 
  N1       1.0000 0.47767  0.13604  0.53152  Biso   1.000  N 
  N2       1.0000 0.78140  0.73691  0.02326  Biso   1.000  N 
  N3       1.0000 0.59467  0.41567  0.94741  Biso   1.000  N 
  N4       1.0000 0.79174  0.23509  0.45547  Biso   1.000  N 
  N5       1.0000 0.59643  0.13607  0.44757  Biso   1.000  N 
  N6       1.0000 0.79003  0.31670  0.95531  Biso   1.000  N 
  N7       1.0000 0.97799  0.91621  0.53165  Biso   1.000  N 
  N8       1.0000 0.29176  0.81617  0.45539  Biso   1.000  N 
  N9       1.0000 0.47605  0.41659  0.03152  Biso   1.000  N 
  N10      1.0000 0.09475  0.63697  0.94758  Biso   1.000  N 
  N11      1.0000 0.28138  0.31630  0.02333  Biso   1.000  N 
  N12      1.0000 0.28307  0.23648  0.52321  Biso   1.000  N 
  N13      1.0000 0.09632  0.91502  0.44749  Biso   1.000  N 
  N14      1.0000 0.78351  0.81556  0.52342  Biso   1.000  N 
  N15      1.0000 0.97601  0.63657  0.03148  Biso   1.000  N 
  N16      1.0000 0.29019  0.73579  0.95549  Biso   1.000  N 
