data_image0
_cell_length_a       6.96755
_cell_length_b       7.71408
_cell_length_c       34.4946
_cell_angle_alpha    89.7593
_cell_angle_beta     104.884
_cell_angle_gamma    90.1951

_symmetry_space_group_name_H-M    "P 1"
_symmetry_int_tables_number       1

loop_
  _symmetry_equiv_pos_as_xyz
  'x, y, z'

loop_
  _atom_site_label
  _atom_site_occupancy
  _atom_site_fract_x
  _atom_site_fract_y
  _atom_site_fract_z
  _atom_site_thermal_displace_type
  _atom_site_B_iso_or_equiv
  _atom_site_type_symbol
  C1       1.0000 0.24966  0.27065  0.56092  Biso   1.000  C 
  C2       1.0000 0.60580  0.15375  0.65914  Biso   1.000  C 
  C3       1.0000 0.63094  0.15584  0.70041  Biso   1.000  C 
  C4       1.0000 0.92790  0.74465  0.09009  Biso   1.000  C 
  C5       1.0000 0.90464  0.84407  0.27956  Biso   1.000  C 
  C6       1.0000 0.04800  0.76934  0.26246  Biso   1.000  C 
  C7       1.0000 0.02387  0.90285  0.41121  Biso   1.000  C 
  C8       1.0000 0.21507  0.69402  0.28914  Biso   1.000  C 
  C9       1.0000 0.14427  0.81421  0.39069  Biso   1.000  C 
  C10      1.0000 0.46583  0.15454  0.32004  Biso   1.000  C 
  C11      1.0000 0.60020  0.26871  0.34518  Biso   1.000  C 
  C12      1.0000 0.70124  0.38871  0.32672  Biso   1.000  C 
  C13      1.0000 0.67368  0.39055  0.28526  Biso   1.000  C 
  C14      1.0000 0.32256  0.77151  0.91769  Biso   1.000  C 
  C15      1.0000 0.14090  0.74764  0.88877  Biso   1.000  C 
  C16      1.0000 0.32572  0.79548  0.42000  Biso   1.000  C 
  C17      1.0000 0.02483  0.77152  0.21863  Biso   1.000  C 
  C18      1.0000 0.24121  0.69928  0.33048  Biso   1.000  C 
  C19      1.0000 0.10417  0.65298  0.15912  Biso   1.000  C 
  C20      1.0000 0.97025  0.76647  0.13362  Biso   1.000  C 
  C21      1.0000 0.42597  0.31151  0.08805  Biso   1.000  C 
  C22      1.0000 0.89642  0.88919  0.19318  Biso   1.000  C 
  C23      1.0000 0.82477  0.27135  0.41768  Biso   1.000  C 
  C24      1.0000 0.52188  0.26876  0.21636  Biso   1.000  C 
  C25      1.0000 0.66616  0.34217  0.19909  Biso   1.000  C 
  C26      1.0000 0.63941  0.34844  0.15776  Biso   1.000  C 
  C27      1.0000 0.13014  0.65508  0.20041  Biso   1.000  C 
  C28      1.0000 0.32797  0.19808  0.14853  Biso   1.000  C 
  C29      1.0000 0.35402  0.19366  0.18988  Biso   1.000  C 
  C30      1.0000 0.54500  0.27210  0.26018  Biso   1.000  C 
  C31      1.0000 0.43960  0.15585  0.27873  Biso   1.000  C 
  C32      1.0000 0.93159  0.85123  0.32087  Biso   1.000  C 
  C33      1.0000 0.86924  0.88658  0.15174  Biso   1.000  C 
  C34      1.0000 0.10289  0.78248  0.34752  Biso   1.000  C 
  C35      1.0000 0.04742  0.66048  0.06874  Biso   1.000  C 
  C36      1.0000 0.24409  0.29376  0.05883  Biso   1.000  C 
  C37      1.0000 0.46728  0.28008  0.13129  Biso   1.000  C 
  C38      1.0000 0.74642  0.79411  0.55887  Biso   1.000  C 
  C39      1.0000 0.43052  0.35232  0.82065  Biso   1.000  C 
  C40      1.0000 0.40419  0.34521  0.77935  Biso   1.000  C 
  C41      1.0000 0.54772  0.27018  0.76234  Biso   1.000  C 
  C42      1.0000 0.52175  0.40323  0.91102  Biso   1.000  C 
  C43      1.0000 0.64237  0.31471  0.89053  Biso   1.000  C 
  C44      1.0000 0.82361  0.29574  0.91990  Biso   1.000  C 
  C45      1.0000 0.52333  0.16350  0.41036  Biso   1.000  C 
  C46      1.0000 0.04407  0.77310  0.76020  Biso   1.000  C 
  C47      1.0000 0.96418  0.65533  0.81997  Biso   1.000  C 
  C48      1.0000 0.09835  0.76935  0.84519  Biso   1.000  C 
  C49      1.0000 0.19972  0.88938  0.82681  Biso   1.000  C 
  C50      1.0000 0.02101  0.66386  0.91033  Biso   1.000  C 
  C51      1.0000 0.54706  0.39975  0.06737  Biso   1.000  C 
  C52      1.0000 0.64310  0.24724  0.38877  Biso   1.000  C 
  C53      1.0000 0.93837  0.65676  0.77867  Biso   1.000  C 
  C54      1.0000 0.73982  0.19963  0.83041  Biso   1.000  C 
  C55      1.0000 0.43045  0.24552  0.59004  Biso   1.000  C 
  C56      1.0000 0.52535  0.27240  0.71854  Biso   1.000  C 
  C57      1.0000 0.55001  0.16117  0.56873  Biso   1.000  C 
  C58      1.0000 0.92801  0.81230  0.58816  Biso   1.000  C 
  C59      1.0000 0.17254  0.89144  0.78537  Biso   1.000  C 
  C60      1.0000 0.02166  0.76984  0.71640  Biso   1.000  C 
  C61      1.0000 0.16625  0.84349  0.69925  Biso   1.000  C 
  C62      1.0000 0.71429  0.19447  0.78909  Biso   1.000  C 
  C63      1.0000 0.96864  0.78106  0.63138  Biso   1.000  C 
  C64      1.0000 0.60138  0.28317  0.84737  Biso   1.000  C 
  C65      1.0000 0.85424  0.69456  0.68982  Biso   1.000  C 
  C66      1.0000 0.39748  0.39020  0.69301  Biso   1.000  C 
  C67      1.0000 0.37109  0.38758  0.65160  Biso   1.000  C 
  C68      1.0000 0.47240  0.26740  0.63357  Biso   1.000  C 
  C69      1.0000 0.04920  0.90079  0.56754  Biso   1.000  C 
  C70      1.0000 0.14026  0.84974  0.65794  Biso   1.000  C 
  C71      1.0000 0.82897  0.69891  0.64849  Biso   1.000  C 
  C72      1.0000 0.74706  0.76973  0.06099  Biso   1.000  C 
  Co1      1.0000 0.53462  0.57236  0.98928  Biso   1.000  Co
  Co2      1.0000 0.03715  0.07278  0.48935  Biso   1.000  Co
  Co3      1.0000 0.53663  0.00439  0.48953  Biso   1.000  Co
  Co4      1.0000 0.03418  0.50444  0.98947  Biso   1.000  Co
  H1       1.0000 0.31700  0.48708  0.70552  Biso   1.000  H 
  H2       1.0000 0.20273  0.94212  0.57817  Biso   1.000  H 
  H3       1.0000 0.75385  0.48729  0.27237  Biso   1.000  H 
  H4       1.0000 0.73779  0.63487  0.70130  Biso   1.000  H 
  H5       1.0000 0.20077  0.61873  0.07912  Biso   1.000  H 
  H6       1.0000 0.30226  0.98242  0.84507  Biso   1.000  H 
  H7       1.0000 0.88473  0.55835  0.83298  Biso   1.000  H 
  H8       1.0000 0.69507  0.64108  0.62928  Biso   1.000  H 
  H9       1.0000 0.25364  0.91408  0.64632  Biso   1.000  H 
  H10      1.0000 0.60685  0.73816  0.56139  Biso   1.000  H 
  H11      1.0000 0.26939  0.40093  0.76007  Biso   1.000  H 
  H12      1.0000 0.60873  0.82447  0.06432  Biso   1.000  H 
  H13      1.0000 0.31797  0.41756  0.83216  Biso   1.000  H 
  H14      1.0000 0.86715  0.62278  0.90011  Biso   1.000  H 
  H15      1.0000 0.96272  0.23945  0.91748  Biso   1.000  H 
  H16      1.0000 0.87291  0.14118  0.84975  Biso   1.000  H 
  H17      1.0000 0.26937  0.48050  0.63306  Biso   1.000  H 
  H18      1.0000 0.68532  0.05667  0.64644  Biso   1.000  H 
  H19      1.0000 0.82990  0.13365  0.77774  Biso   1.000  H 
  H20      1.0000 0.83869  0.56104  0.76078  Biso   1.000  H 
  H21      1.0000 0.36862  0.44502  0.90032  Biso   1.000  H 
  H22      1.0000 0.96342  0.32550  0.41412  Biso   1.000  H 
  H23      1.0000 0.46129  0.82553  0.91414  Biso   1.000  H 
  H24      1.0000 0.73008  0.06047  0.71858  Biso   1.000  H 
  H25      1.0000 0.25302  0.98818  0.77254  Biso   1.000  H 
  H26      1.0000 0.10447  0.23811  0.06140  Biso   1.000  H 
  H27      1.0000 0.80182  0.39736  0.21818  Biso   1.000  H 
  H28      1.0000 0.87074  0.94467  0.40055  Biso   1.000  H 
  H29      1.0000 0.80359  0.48208  0.34491  Biso   1.000  H 
  H30      1.0000 0.70332  0.11933  0.57912  Biso   1.000  H 
  H31      1.0000 0.36947  0.12241  0.40016  Biso   1.000  H 
  H32      1.0000 0.81618  0.98600  0.20576  Biso   1.000  H 
  H33      1.0000 0.76947  0.89946  0.26035  Biso   1.000  H 
  H34      1.0000 0.22972  0.55984  0.21853  Biso   1.000  H 
  H35      1.0000 0.33061  0.63344  0.27772  Biso   1.000  H 
  H36      1.0000 0.76712  0.97940  0.13327  Biso   1.000  H 
  H37      1.0000 0.70071  0.44088  0.07793  Biso   1.000  H 
  H38      1.0000 0.81905  0.91614  0.33244  Biso   1.000  H 
  H39      1.0000 0.23781  0.13413  0.20146  Biso   1.000  H 
  H40      1.0000 0.11136  0.32555  0.56422  Biso   1.000  H 
  H41      1.0000 0.33989  0.06003  0.26090  Biso   1.000  H 
  H42      1.0000 0.38652  0.05766  0.33312  Biso   1.000  H 
  H43      1.0000 0.75256  0.41260  0.14603  Biso   1.000  H 
  H44      1.0000 0.19381  0.14034  0.12940  Biso   1.000  H 
  H45      1.0000 0.30160  0.89885  0.71842  Biso   1.000  H 
  H46      1.0000 0.46477  0.73923  0.41754  Biso   1.000  H 
  H47      1.0000 0.18356  0.55601  0.14635  Biso   1.000  H 
  H48      1.0000 0.37464  0.64114  0.34976  Biso   1.000  H 
  N1       1.0000 0.62553  0.43880  0.94891  Biso   1.000  N 
  N2       1.0000 0.81575  0.20111  0.45322  Biso   1.000  N 
  N3       1.0000 0.94543  0.93719  0.52965  Biso   1.000  N 
  N4       1.0000 0.62777  0.13517  0.44861  Biso   1.000  N 
  N5       1.0000 0.81335  0.37250  0.95449  Biso   1.000  N 
  N6       1.0000 0.44619  0.13353  0.53044  Biso   1.000  N 
  N7       1.0000 0.75701  0.87137  0.52421  Biso   1.000  N 
  N8       1.0000 0.94358  0.63297  0.03045  Biso   1.000  N 
  N9       1.0000 0.12794  0.93865  0.44906  Biso   1.000  N 
  N10      1.0000 0.44301  0.43641  0.02952  Biso   1.000  N 
  N11      1.0000 0.12536  0.63533  0.94858  Biso   1.000  N 
  N12      1.0000 0.25447  0.37099  0.02415  Biso   1.000  N 
  N13      1.0000 0.31575  0.87240  0.45459  Biso   1.000  N 
  N14      1.0000 0.25891  0.20049  0.52552  Biso   1.000  N 
  N15      1.0000 0.75627  0.69980  0.02557  Biso   1.000  N 
  N16      1.0000 0.31342  0.70113  0.95321  Biso   1.000  N 
