data_image0
_cell_length_a       6.57902
_cell_length_b       13.1747
_cell_length_c       32.6664
_cell_angle_alpha    90.0107
_cell_angle_beta     97.6609
_cell_angle_gamma    89.9556

_symmetry_space_group_name_H-M    "P 1"
_symmetry_int_tables_number       1

loop_
  _symmetry_equiv_pos_as_xyz
  'x, y, z'

loop_
  _atom_site_label
  _atom_site_occupancy
  _atom_site_fract_x
  _atom_site_fract_y
  _atom_site_fract_z
  _atom_site_thermal_displace_type
  _atom_site_B_iso_or_equiv
  _atom_site_type_symbol
  C1       1.0000 0.22474  0.18145  0.56074  Biso   1.000  C 
  C2       1.0000 0.04401  0.60386  0.90914  Biso   1.000  C 
  C3       1.0000 0.40032  0.16783  0.59001  Biso   1.000  C 
  C4       1.0000 0.52590  0.10388  0.56962  Biso   1.000  C 
  C5       1.0000 0.27873  0.75456  0.82698  Biso   1.000  C 
  C6       1.0000 0.12872  0.70355  0.84611  Biso   1.000  C 
  C7       1.0000 0.93879  0.68411  0.82201  Biso   1.000  C 
  C8       1.0000 0.90165  0.71310  0.78081  Biso   1.000  C 
  C9       1.0000 0.05217  0.76329  0.76155  Biso   1.000  C 
  C10      1.0000 0.84856  0.37295  0.91770  Biso   1.000  C 
  C11      1.0000 0.67239  0.38494  0.88862  Biso   1.000  C 
  C12      1.0000 0.54318  0.44658  0.90904  Biso   1.000  C 
  C13      1.0000 0.55806  0.29220  0.76117  Biso   1.000  C 
  C14      1.0000 0.40009  0.29269  0.78629  Biso   1.000  C 
  C15      1.0000 0.43741  0.32096  0.82763  Biso   1.000  C 
  C16      1.0000 0.54347  0.10377  0.40912  Biso   1.000  C 
  C17      1.0000 0.79329  0.34879  0.82085  Biso   1.000  C 
  C18      1.0000 0.24115  0.78372  0.78574  Biso   1.000  C 
  C19      1.0000 0.51850  0.26294  0.71726  Biso   1.000  C 
  C20      1.0000 0.13380  0.82179  0.65126  Biso   1.000  C 
  C21      1.0000 0.77746  0.84888  0.65790  Biso   1.000  C 
  C22      1.0000 0.22301  0.37309  0.06108  Biso   1.000  C 
  C23      1.0000 0.44137  0.20359  0.63265  Biso   1.000  C 
  C24      1.0000 0.29119  0.25418  0.65193  Biso   1.000  C 
  C25      1.0000 0.32908  0.28317  0.69319  Biso   1.000  C 
  C26      1.0000 0.81516  0.82079  0.69925  Biso   1.000  C 
  C27      1.0000 0.02729  0.94681  0.56971  Biso   1.000  C 
  C28      1.0000 0.93627  0.85028  0.63301  Biso   1.000  C 
  C29      1.0000 0.75557  0.32064  0.77951  Biso   1.000  C 
  C30      1.0000 0.17110  0.79357  0.69261  Biso   1.000  C 
  C31      1.0000 0.01283  0.79270  0.71766  Biso   1.000  C 
  C32      1.0000 0.72526  0.68156  0.06070  Biso   1.000  C 
  C33      1.0000 0.89846  0.88516  0.59018  Biso   1.000  C 
  C34      1.0000 0.63469  0.34988  0.84580  Biso   1.000  C 
  C35      1.0000 0.72233  0.87297  0.56110  Biso   1.000  C 
  C36      1.0000 0.52798  0.44691  0.06969  Biso   1.000  C 
  C37      1.0000 0.63179  0.18439  0.65663  Biso   1.000  C 
  C38      1.0000 0.02631  0.60388  0.06964  Biso   1.000  C 
  C39      1.0000 0.16949  0.66776  0.88875  Biso   1.000  C 
  C40      1.0000 0.34492  0.68144  0.91803  Biso   1.000  C 
  C41      1.0000 0.74110  0.28353  0.28573  Biso   1.000  C 
  C42      1.0000 0.77849  0.25439  0.32698  Biso   1.000  C 
  C43      1.0000 0.62831  0.20350  0.34610  Biso   1.000  C 
  C44      1.0000 0.43838  0.18413  0.32199  Biso   1.000  C 
  C45      1.0000 0.34775  0.87301  0.41771  Biso   1.000  C 
  C46      1.0000 0.17160  0.88503  0.38862  Biso   1.000  C 
  C47      1.0000 0.04236  0.94662  0.40907  Biso   1.000  C 
  C48      1.0000 0.05779  0.79236  0.26116  Biso   1.000  C 
  C49      1.0000 0.89970  0.79281  0.28625  Biso   1.000  C 
  C50      1.0000 0.29270  0.84903  0.32088  Biso   1.000  C 
  C51      1.0000 0.90067  0.66788  0.09000  Biso   1.000  C 
  C52      1.0000 0.66918  0.21319  0.69786  Biso   1.000  C 
  C53      1.0000 0.25520  0.82088  0.27953  Biso   1.000  C 
  C54      1.0000 0.01841  0.76308  0.21725  Biso   1.000  C 
  C55      1.0000 0.13402  0.85003  0.34580  Biso   1.000  C 
  C56      1.0000 0.13189  0.68444  0.15665  Biso   1.000  C 
  C57      1.0000 0.93681  0.82107  0.32760  Biso   1.000  C 
  C58      1.0000 0.79132  0.75429  0.15189  Biso   1.000  C 
  C59      1.0000 0.16915  0.71327  0.19788  Biso   1.000  C 
  C60      1.0000 0.40143  0.21310  0.28077  Biso   1.000  C 
  C61      1.0000 0.55213  0.26318  0.26153  Biso   1.000  C 
  C62      1.0000 0.31537  0.32080  0.19919  Biso   1.000  C 
  C63      1.0000 0.27788  0.34897  0.15785  Biso   1.000  C 
  C64      1.0000 0.94155  0.70365  0.13265  Biso   1.000  C 
  C65      1.0000 0.63423  0.32174  0.15126  Biso   1.000  C 
  C66      1.0000 0.67131  0.29345  0.19260  Biso   1.000  C 
  C67      1.0000 0.51295  0.29261  0.21763  Biso   1.000  C 
  C68      1.0000 0.84428  0.18143  0.41805  Biso   1.000  C 
  C69      1.0000 0.43680  0.35035  0.13299  Biso   1.000  C 
  C70      1.0000 0.66895  0.16772  0.38875  Biso   1.000  C 
  C71      1.0000 0.39913  0.38526  0.09015  Biso   1.000  C 
  C72      1.0000 0.82908  0.78331  0.19315  Biso   1.000  C 
  Co1      1.0000 0.03536  0.49768  0.98938  Biso   1.000  Co
  Co2      1.0000 0.53469  0.99758  0.48938  Biso   1.000  Co
  Co3      1.0000 0.53538  0.55472  0.98936  Biso   1.000  Co
  Co4      1.0000 0.03460  0.05469  0.48939  Biso   1.000  Co
  H1       1.0000 0.67899  0.47692  0.08082  Biso   1.000  H 
  H2       1.0000 0.82491  0.26888  0.20551  Biso   1.000  H 
  H3       1.0000 0.08297  0.33126  0.06356  Biso   1.000  H 
  H4       1.0000 0.67658  0.07294  0.58031  Biso   1.000  H 
  H5       1.0000 0.39286  0.07286  0.39842  Biso   1.000  H 
  H6       1.0000 0.71025  0.82403  0.20681  Biso   1.000  H 
  H7       1.0000 0.74626  0.76803  0.27338  Biso   1.000  H 
  H8       1.0000 0.31650  0.69437  0.21572  Biso   1.000  H 
  H9       1.0000 0.37985  0.82444  0.26065  Biso   1.000  H 
  H10      1.0000 0.64205  0.77108  0.13438  Biso   1.000  H 
  H11      1.0000 0.35982  0.82469  0.77217  Biso   1.000  H 
  H12      1.0000 0.81211  0.81888  0.34651  Biso   1.000  H 
  H13      1.0000 0.92743  0.27129  0.34457  Biso   1.000  H 
  H14      1.0000 0.25441  0.19412  0.26286  Biso   1.000  H 
  H15      1.0000 0.19047  0.32405  0.21801  Biso   1.000  H 
  H16      1.0000 0.31816  0.14413  0.33545  Biso   1.000  H 
  H17      1.0000 0.44573  0.87447  0.33381  Biso   1.000  H 
  H18      1.0000 0.75916  0.31978  0.13239  Biso   1.000  H 
  H19      1.0000 0.32478  0.76908  0.70550  Biso   1.000  H 
  H20      1.0000 0.48807  0.83130  0.41524  Biso   1.000  H 
  H21      1.0000 0.12468  0.37408  0.14487  Biso   1.000  H 
  H22      1.0000 0.25221  0.64465  0.14309  Biso   1.000  H 
  H23      1.0000 0.08505  0.22385  0.56300  Biso   1.000  H 
  H24      1.0000 0.89117  0.97653  0.39792  Biso   1.000  H 
  H25      1.0000 0.17828  0.97685  0.58084  Biso   1.000  H 
  H26      1.0000 0.89334  0.57300  0.89845  Biso   1.000  H 
  H27      1.0000 0.48447  0.72383  0.91577  Biso   1.000  H 
  H28      1.0000 0.85988  0.32442  0.27217  Biso   1.000  H 
  H29      1.0000 0.21029  0.32386  0.70687  Biso   1.000  H 
  H30      1.0000 0.69034  0.82402  0.71809  Biso   1.000  H 
  H31      1.0000 0.17690  0.57288  0.08037  Biso   1.000  H 
  H32      1.0000 0.42767  0.77153  0.84456  Biso   1.000  H 
  H33      1.0000 0.81874  0.64399  0.83549  Biso   1.000  H 
  H34      1.0000 0.62418  0.87393  0.64493  Biso   1.000  H 
  H35      1.0000 0.25866  0.81988  0.63237  Biso   1.000  H 
  H36      1.0000 0.58233  0.83113  0.56359  Biso   1.000  H 
  H37      1.0000 0.98379  0.22387  0.41582  Biso   1.000  H 
  H38      1.0000 0.58560  0.72400  0.06293  Biso   1.000  H 
  H39      1.0000 0.81659  0.19431  0.71567  Biso   1.000  H 
  H40      1.0000 0.75465  0.69405  0.76290  Biso   1.000  H 
  H41      1.0000 0.24659  0.26793  0.77344  Biso   1.000  H 
  H42      1.0000 0.88014  0.32412  0.76061  Biso   1.000  H 
  H43      1.0000 0.75207  0.14463  0.64305  Biso   1.000  H 
  H44      1.0000 0.39200  0.47647  0.89789  Biso   1.000  H 
  H45      1.0000 0.94640  0.37416  0.83376  Biso   1.000  H 
  H46      1.0000 0.31283  0.31880  0.84658  Biso   1.000  H 
  H47      1.0000 0.98888  0.33122  0.91525  Biso   1.000  H 
  H48      1.0000 0.14185  0.27097  0.63444  Biso   1.000  H 
  N1       1.0000 0.93138  0.58080  0.03163  Biso   1.000  N 
  N2       1.0000 0.13907  0.58083  0.94715  Biso   1.000  N 
  N3       1.0000 0.74538  0.62898  0.02590  Biso   1.000  N 
  N4       1.0000 0.43335  0.47053  0.03164  Biso   1.000  N 
  N5       1.0000 0.13684  0.97037  0.44712  Biso   1.000  N 
  N6       1.0000 0.32480  0.92418  0.45271  Biso   1.000  N 
  N7       1.0000 0.82430  0.12893  0.45286  Biso   1.000  N 
  N8       1.0000 0.24475  0.12889  0.52593  Biso   1.000  N 
  N9       1.0000 0.93262  0.97043  0.53166  Biso   1.000  N 
  N10      1.0000 0.63765  0.47038  0.94709  Biso   1.000  N 
  N11      1.0000 0.43081  0.08078  0.53162  Biso   1.000  N 
  N12      1.0000 0.82561  0.42418  0.95269  Biso   1.000  N 
  N13      1.0000 0.74490  0.92411  0.52609  Biso   1.000  N 
  N14      1.0000 0.63843  0.08076  0.44714  Biso   1.000  N 
  N15      1.0000 0.24562  0.42422  0.02606  Biso   1.000  N 
  N16      1.0000 0.32500  0.62895  0.95285  Biso   1.000  N 
