data_image0
_cell_length_a       6.44447
_cell_length_b       22.2081
_cell_length_c       26.8896
_cell_angle_alpha    90.0117
_cell_angle_beta     90.6457
_cell_angle_gamma    89.9699

_symmetry_space_group_name_H-M    "P 1"
_symmetry_int_tables_number       1

loop_
  _symmetry_equiv_pos_as_xyz
  'x, y, z'

loop_
  _atom_site_label
  _atom_site_occupancy
  _atom_site_fract_x
  _atom_site_fract_y
  _atom_site_fract_z
  _atom_site_thermal_displace_type
  _atom_site_B_iso_or_equiv
  _atom_site_type_symbol
  C1       1.0000 0.21195  0.13673  0.56312  Biso   1.000  C 
  C2       1.0000 0.38465  0.13710  0.59578  Biso   1.000  C 
  C3       1.0000 0.50781  0.08913  0.57872  Biso   1.000  C 
  C4       1.0000 0.24938  0.75742  0.78551  Biso   1.000  C 
  C5       1.0000 0.29121  0.71891  0.82513  Biso   1.000  C 
  C6       1.0000 0.14301  0.67686  0.84123  Biso   1.000  C 
  C7       1.0000 0.95144  0.67517  0.81550  Biso   1.000  C 
  C8       1.0000 0.91035  0.71349  0.77572  Biso   1.000  C 
  C9       1.0000 0.05823  0.75568  0.75973  Biso   1.000  C 
  C10      1.0000 0.86025  0.41932  0.91475  Biso   1.000  C 
  C11      1.0000 0.68458  0.41753  0.88323  Biso   1.000  C 
  C12      1.0000 0.55759  0.46409  0.90109  Biso   1.000  C 
  C13      1.0000 0.55698  0.29743  0.76079  Biso   1.000  C 
  C14      1.0000 0.39810  0.31709  0.79240  Biso   1.000  C 
  C15      1.0000 0.43955  0.35588  0.83186  Biso   1.000  C 
  C16      1.0000 0.56215  0.08882  0.40019  Biso   1.000  C 
  C17      1.0000 0.80118  0.35702  0.81026  Biso   1.000  C 
  C18      1.0000 0.64198  0.37671  0.84171  Biso   1.000  C 
  C19      1.0000 0.51306  0.25658  0.71876  Biso   1.000  C 
  C20      1.0000 0.20955  0.41911  0.06429  Biso   1.000  C 
  C21      1.0000 0.76967  0.85639  0.66851  Biso   1.000  C 
  C22      1.0000 0.61938  0.17589  0.66307  Biso   1.000  C 
  C23      1.0000 0.42770  0.17759  0.63741  Biso   1.000  C 
  C24      1.0000 0.27977  0.21981  0.65343  Biso   1.000  C 
  C25      1.0000 0.32191  0.25840  0.69298  Biso   1.000  C 
  C26      1.0000 0.81183  0.81754  0.70790  Biso   1.000  C 
  C27      1.0000 0.13114  0.85522  0.64676  Biso   1.000  C 
  C28      1.0000 0.92866  0.87616  0.63707  Biso   1.000  C 
  C29      1.0000 0.75934  0.31832  0.77074  Biso   1.000  C 
  C30      1.0000 0.17291  0.81627  0.68611  Biso   1.000  C 
  C31      1.0000 0.01425  0.79659  0.71775  Biso   1.000  C 
  C32      1.0000 0.01227  0.96383  0.57798  Biso   1.000  C 
  C33      1.0000 0.88563  0.91719  0.59573  Biso   1.000  C 
  C34      1.0000 0.71185  0.63669  0.06315  Biso   1.000  C 
  C35      1.0000 0.70959  0.91915  0.56432  Biso   1.000  C 
  C36      1.0000 0.06211  0.58880  0.90019  Biso   1.000  C 
  C37      1.0000 0.66077  0.21429  0.70277  Biso   1.000  C 
  C38      1.0000 0.00773  0.58910  0.07875  Biso   1.000  C 
  C39      1.0000 0.18560  0.63658  0.88303  Biso   1.000  C 
  C40      1.0000 0.35788  0.63633  0.91583  Biso   1.000  C 
  C41      1.0000 0.74936  0.25743  0.28551  Biso   1.000  C 
  C42      1.0000 0.79121  0.21892  0.32513  Biso   1.000  C 
  C43      1.0000 0.64301  0.17687  0.34123  Biso   1.000  C 
  C44      1.0000 0.45146  0.17517  0.31550  Biso   1.000  C 
  C45      1.0000 0.36022  0.91933  0.41475  Biso   1.000  C 
  C46      1.0000 0.18454  0.91754  0.38323  Biso   1.000  C 
  C47      1.0000 0.05759  0.96411  0.40108  Biso   1.000  C 
  C48      1.0000 0.05686  0.79745  0.26078  Biso   1.000  C 
  C49      1.0000 0.89798  0.81712  0.29239  Biso   1.000  C 
  C50      1.0000 0.14191  0.87673  0.34171  Biso   1.000  C 
  C51      1.0000 0.30109  0.85702  0.31026  Biso   1.000  C 
  C52      1.0000 0.88455  0.63706  0.09581  Biso   1.000  C 
  C53      1.0000 0.25923  0.81832  0.27074  Biso   1.000  C 
  C54      1.0000 0.01292  0.75658  0.21877  Biso   1.000  C 
  C55      1.0000 0.93947  0.85591  0.33185  Biso   1.000  C 
  C56      1.0000 0.11923  0.67586  0.16310  Biso   1.000  C 
  C57      1.0000 0.16062  0.71428  0.20280  Biso   1.000  C 
  C58      1.0000 0.77966  0.71979  0.15344  Biso   1.000  C 
  C59      1.0000 0.92758  0.67756  0.13743  Biso   1.000  C 
  C60      1.0000 0.41036  0.21348  0.27572  Biso   1.000  C 
  C61      1.0000 0.55823  0.25567  0.25973  Biso   1.000  C 
  C62      1.0000 0.31179  0.31753  0.20790  Biso   1.000  C 
  C63      1.0000 0.26964  0.35636  0.16850  Biso   1.000  C 
  C64      1.0000 0.82178  0.75840  0.19298  Biso   1.000  C 
  C65      1.0000 0.63109  0.35519  0.14675  Biso   1.000  C 
  C66      1.0000 0.67287  0.31626  0.18610  Biso   1.000  C 
  C67      1.0000 0.51422  0.29658  0.21774  Biso   1.000  C 
  C68      1.0000 0.85789  0.13637  0.41584  Biso   1.000  C 
  C69      1.0000 0.68562  0.13661  0.38303  Biso   1.000  C 
  C70      1.0000 0.51217  0.46381  0.07798  Biso   1.000  C 
  C71      1.0000 0.38555  0.41715  0.09571  Biso   1.000  C 
  C72      1.0000 0.42861  0.37613  0.13706  Biso   1.000  C 
  Co1      1.0000 0.53472  0.00901  0.48957  Biso   1.000  Co
  Co2      1.0000 0.03466  0.50899  0.98957  Biso   1.000  Co
  Co3      1.0000 0.03449  0.04575  0.48970  Biso   1.000  Co
  Co4      1.0000 0.53446  0.54575  0.98969  Biso   1.000  Co
  H1       1.0000 0.07222  0.39078  0.06392  Biso   1.000  H 
  H2       1.0000 0.66283  0.47925  0.09126  Biso   1.000  H 
  H3       1.0000 0.07559  0.16547  0.56213  Biso   1.000  H 
  H4       1.0000 0.65641  0.07243  0.59226  Biso   1.000  H 
  H5       1.0000 0.41368  0.07210  0.38661  Biso   1.000  H 
  H6       1.0000 0.70563  0.79169  0.20342  Biso   1.000  H 
  H7       1.0000 0.74054  0.80020  0.28683  Biso   1.000  H 
  H8       1.0000 0.30924  0.71063  0.22241  Biso   1.000  H 
  H9       1.0000 0.38479  0.80525  0.24610  Biso   1.000  H 
  H10      1.0000 0.62939  0.72278  0.13451  Biso   1.000  H 
  H11      1.0000 0.94148  0.22189  0.34407  Biso   1.000  H 
  H12      1.0000 0.81422  0.86928  0.35652  Biso   1.000  H 
  H13      1.0000 0.90706  0.97964  0.38777  Biso   1.000  H 
  H14      1.0000 0.49763  0.89099  0.41509  Biso   1.000  H 
  H15      1.0000 0.36565  0.79063  0.77502  Biso   1.000  H 
  H16      1.0000 0.33038  0.79928  0.69156  Biso   1.000  H 
  H17      1.0000 0.75607  0.36859  0.12203  Biso   1.000  H 
  H18      1.0000 0.11223  0.37329  0.16276  Biso   1.000  H 
  H19      1.0000 0.33258  0.14303  0.32656  Biso   1.000  H 
  H20      1.0000 0.18644  0.30441  0.23257  Biso   1.000  H 
  H21      1.0000 0.45847  0.87390  0.31610  Biso   1.000  H 
  H22      1.0000 0.26182  0.20987  0.25607  Biso   1.000  H 
  H23      1.0000 0.23789  0.64359  0.15207  Biso   1.000  H 
  H24      1.0000 0.83034  0.29927  0.19154  Biso   1.000  H 
  H25      1.0000 0.20574  0.29169  0.70343  Biso   1.000  H 
  H26      1.0000 0.76180  0.70989  0.75608  Biso   1.000  H 
  H27      1.0000 0.99434  0.16503  0.41680  Biso   1.000  H 
  H28      1.0000 0.49435  0.66499  0.91678  Biso   1.000  H 
  H29      1.0000 0.86561  0.29063  0.27501  Biso   1.000  H 
  H30      1.0000 0.68647  0.80442  0.73256  Biso   1.000  H 
  H31      1.0000 0.15635  0.57241  0.09228  Biso   1.000  H 
  H32      1.0000 0.44146  0.72186  0.84408  Biso   1.000  H 
  H33      1.0000 0.83254  0.64303  0.82657  Biso   1.000  H 
  H34      1.0000 0.61224  0.87331  0.66276  Biso   1.000  H 
  H35      1.0000 0.25614  0.86862  0.62205  Biso   1.000  H 
  H36      1.0000 0.57224  0.89084  0.56396  Biso   1.000  H 
  H37      1.0000 0.91360  0.57208  0.88662  Biso   1.000  H 
  H38      1.0000 0.57549  0.66542  0.06216  Biso   1.000  H 
  H39      1.0000 0.16295  0.97926  0.59126  Biso   1.000  H 
  H40      1.0000 0.99768  0.39099  0.91509  Biso   1.000  H 
  H41      1.0000 0.31430  0.36924  0.85653  Biso   1.000  H 
  H42      1.0000 0.95856  0.37389  0.81610  Biso   1.000  H 
  H43      1.0000 0.40707  0.47961  0.88776  Biso   1.000  H 
  H44      1.0000 0.12949  0.22280  0.63451  Biso   1.000  H 
  H45      1.0000 0.88488  0.30523  0.74611  Biso   1.000  H 
  H46      1.0000 0.80940  0.21063  0.72238  Biso   1.000  H 
  H47      1.0000 0.24067  0.30016  0.78684  Biso   1.000  H 
  H48      1.0000 0.73803  0.14363  0.65202  Biso   1.000  H 
  N1       1.0000 0.73273  0.59228  0.02933  Biso   1.000  N 
  N2       1.0000 0.41719  0.49126  0.03911  Biso   1.000  N 
  N3       1.0000 0.83649  0.09217  0.44981  Biso   1.000  N 
  N4       1.0000 0.15205  0.99135  0.44012  Biso   1.000  N 
  N5       1.0000 0.33755  0.96329  0.44896  Biso   1.000  N 
  N6       1.0000 0.91480  0.56275  0.03916  Biso   1.000  N 
  N7       1.0000 0.65451  0.06267  0.43995  Biso   1.000  N 
  N8       1.0000 0.23173  0.46325  0.03025  Biso   1.000  N 
  N9       1.0000 0.73178  0.96329  0.53027  Biso   1.000  N 
  N10      1.0000 0.91728  0.99128  0.53912  Biso   1.000  N 
  N11      1.0000 0.65203  0.49133  0.94013  Biso   1.000  N 
  N12      1.0000 0.41485  0.06278  0.53914  Biso   1.000  N 
  N13      1.0000 0.23279  0.09232  0.52931  Biso   1.000  N 
  N14      1.0000 0.83754  0.46327  0.94897  Biso   1.000  N 
  N15      1.0000 0.15446  0.56265  0.93995  Biso   1.000  N 
  N16      1.0000 0.33645  0.59215  0.94981  Biso   1.000  N 
