data_image0
_cell_length_a       29.0351
_cell_length_b       9.36272
_cell_length_c       7.09472
_cell_angle_alpha    89.721
_cell_angle_beta     94.5508
_cell_angle_gamma    90.0419

_symmetry_space_group_name_H-M    "P 1"
_symmetry_int_tables_number       1

loop_
  _symmetry_equiv_pos_as_xyz
  'x, y, z'

loop_
  _atom_site_label
  _atom_site_occupancy
  _atom_site_fract_x
  _atom_site_fract_y
  _atom_site_fract_z
  _atom_site_thermal_displace_type
  _atom_site_B_iso_or_equiv
  _atom_site_type_symbol
  C1       1.0000 0.59403  0.19338  0.68166  Biso   1.000  C 
  C2       1.0000 0.89037  0.38935  0.81540  Biso   1.000  C 
  C3       1.0000 0.39037  0.88939  0.81540  Biso   1.000  C 
  C4       1.0000 0.30160  0.35048  0.03384  Biso   1.000  C 
  C5       1.0000 0.57012  0.89002  0.03653  Biso   1.000  C 
  C6       1.0000 0.39880  0.20568  0.03181  Biso   1.000  C 
  C7       1.0000 0.09445  0.31364  0.18390  Biso   1.000  C 
  C8       1.0000 0.31785  0.23617  0.15502  Biso   1.000  C 
  C9       1.0000 0.15946  0.15739  0.31903  Biso   1.000  C 
  C10      1.0000 0.67493  0.84581  0.09752  Biso   1.000  C 
  C11      1.0000 0.72251  0.81118  0.11421  Biso   1.000  C 
  C12      1.0000 0.75549  0.88661  0.01388  Biso   1.000  C 
  C13      1.0000 0.23849  0.19696  0.23852  Biso   1.000  C 
  C14      1.0000 0.28605  0.16208  0.25508  Biso   1.000  C 
  C15      1.0000 0.09404  0.69327  0.68165  Biso   1.000  C 
  C16      1.0000 0.06213  0.30030  0.32036  Biso   1.000  C 
  C17      1.0000 0.80160  0.85040  0.03374  Biso   1.000  C 
  C18      1.0000 0.89063  0.61588  0.31543  Biso   1.000  C 
  C19      1.0000 0.23813  0.80993  0.73672  Biso   1.000  C 
  C20      1.0000 0.78604  0.66199  0.25496  Biso   1.000  C 
  C21      1.0000 0.06167  0.70595  0.81782  Biso   1.000  C 
  C22      1.0000 0.31754  0.77041  0.65453  Biso   1.000  C 
  C23      1.0000 0.75503  0.12182  0.51227  Biso   1.000  C 
  C24      1.0000 0.30121  0.65727  0.53291  Biso   1.000  C 
  C25      1.0000 0.28574  0.84415  0.75405  Biso   1.000  C 
  C26      1.0000 0.73849  0.69690  0.23843  Biso   1.000  C 
  C27      1.0000 0.78574  0.34416  0.75405  Biso   1.000  C 
  C28      1.0000 0.73813  0.30998  0.73671  Biso   1.000  C 
  C29      1.0000 0.14316  0.27145  0.19754  Biso   1.000  C 
  C30      1.0000 0.81754  0.27040  0.65452  Biso   1.000  C 
  C31      1.0000 0.25505  0.62180  0.51226  Biso   1.000  C 
  C32      1.0000 0.89878  0.29933  0.53325  Biso   1.000  C 
  C33      1.0000 0.56166  0.20603  0.81784  Biso   1.000  C 
  C34      1.0000 0.80120  0.15728  0.53292  Biso   1.000  C 
  C35      1.0000 0.25549  0.38667  0.01397  Biso   1.000  C 
  C36      1.0000 0.36649  0.19309  0.16839  Biso   1.000  C 
  C37      1.0000 0.20557  0.12149  0.33902  Biso   1.000  C 
  C38      1.0000 0.81785  0.73608  0.15491  Biso   1.000  C 
  C39      1.0000 0.56213  0.80033  0.32037  Biso   1.000  C 
  C40      1.0000 0.39878  0.79937  0.53325  Biso   1.000  C 
  C41      1.0000 0.15905  0.84922  0.81630  Biso   1.000  C 
  C42      1.0000 0.14272  0.73590  0.69505  Biso   1.000  C 
  C43      1.0000 0.67449  0.16238  0.59527  Biso   1.000  C 
  C44      1.0000 0.72210  0.19671  0.61236  Biso   1.000  C 
  C45      1.0000 0.20519  0.88489  0.83669  Biso   1.000  C 
  C46      1.0000 0.70557  0.62144  0.33893  Biso   1.000  C 
  C47      1.0000 0.22252  0.31124  0.11430  Biso   1.000  C 
  C48      1.0000 0.17493  0.34585  0.09759  Biso   1.000  C 
  C49      1.0000 0.36627  0.81263  0.66874  Biso   1.000  C 
  C50      1.0000 0.06991  0.61620  0.53540  Biso   1.000  C 
  C51      1.0000 0.56991  0.11630  0.53541  Biso   1.000  C 
  C52      1.0000 0.86648  0.69302  0.16831  Biso   1.000  C 
  C53      1.0000 0.65945  0.65737  0.31898  Biso   1.000  C 
  C54      1.0000 0.64316  0.77144  0.19750  Biso   1.000  C 
  C55      1.0000 0.39063  0.11597  0.31551  Biso   1.000  C 
  C56      1.0000 0.59445  0.81366  0.18389  Biso   1.000  C 
  C57      1.0000 0.89881  0.70565  0.03178  Biso   1.000  C 
  C58      1.0000 0.70519  0.38496  0.83669  Biso   1.000  C 
  C59      1.0000 0.22210  0.69667  0.61235  Biso   1.000  C 
  C60      1.0000 0.07012  0.38999  0.03653  Biso   1.000  C 
  C61      1.0000 0.64272  0.23599  0.69506  Biso   1.000  C 
  C62      1.0000 0.65905  0.34932  0.81632  Biso   1.000  C 
  C63      1.0000 0.86627  0.31260  0.66874  Biso   1.000  C 
  C64      1.0000 0.17450  0.66231  0.59526  Biso   1.000  C 
  H1       1.0000 0.37897  0.92256  0.95060  Biso   1.000  H 
  H2       1.0000 0.79712  0.43316  0.84531  Biso   1.000  H 
  H3       1.0000 0.06554  0.75402  0.95722  Biso   1.000  H 
  H4       1.0000 0.13484  0.09710  0.39662  Biso   1.000  H 
  H5       1.0000 0.21736  0.03390  0.43293  Biso   1.000  H 
  H6       1.0000 0.89498  0.25128  0.39383  Biso   1.000  H 
  H7       1.0000 0.56615  0.75246  0.46048  Biso   1.000  H 
  H8       1.0000 0.87935  0.58302  0.45139  Biso   1.000  H 
  H9       1.0000 0.66355  0.93550  0.00634  Biso   1.000  H 
  H10      1.0000 0.06614  0.25243  0.46048  Biso   1.000  H 
  H11      1.0000 0.37936  0.08314  0.45150  Biso   1.000  H 
  H12      1.0000 0.32581  0.59743  0.45558  Biso   1.000  H 
  H13      1.0000 0.24327  0.53491  0.41823  Biso   1.000  H 
  H14      1.0000 0.16355  0.43553  0.00640  Biso   1.000  H 
  H15      1.0000 0.63445  0.40916  0.89366  Biso   1.000  H 
  H16      1.0000 0.08123  0.58328  0.39994  Biso   1.000  H 
  H17      1.0000 0.58132  0.92302  0.90049  Biso   1.000  H 
  H18      1.0000 0.71735  0.53384  0.43284  Biso   1.000  H 
  H19      1.0000 0.63484  0.59710  0.39659  Biso   1.000  H 
  H20      1.0000 0.71699  0.47192  0.93056  Biso   1.000  H 
  H21      1.0000 0.21698  0.97185  0.93058  Biso   1.000  H 
  H22      1.0000 0.87897  0.42252  0.95060  Biso   1.000  H 
  H23      1.0000 0.74325  0.03494  0.41825  Biso   1.000  H 
  H24      1.0000 0.39491  0.25373  0.89178  Biso   1.000  H 
  H25      1.0000 0.16313  0.57327  0.50405  Biso   1.000  H 
  H26      1.0000 0.74377  0.97438  0.92014  Biso   1.000  H 
  H27      1.0000 0.13444  0.90903  0.89366  Biso   1.000  H 
  H28      1.0000 0.08132  0.42300  0.90051  Biso   1.000  H 
  H29      1.0000 0.89492  0.75373  0.89176  Biso   1.000  H 
  H30      1.0000 0.79735  0.57222  0.34608  Biso   1.000  H 
  H31      1.0000 0.82622  0.91066  0.95619  Biso   1.000  H 
  H32      1.0000 0.32623  0.41073  0.95627  Biso   1.000  H 
  H33      1.0000 0.58122  0.08339  0.39995  Biso   1.000  H 
  H34      1.0000 0.66312  0.07334  0.50408  Biso   1.000  H 
  H35      1.0000 0.39498  0.75132  0.39383  Biso   1.000  H 
  H36      1.0000 0.56552  0.25409  0.95724  Biso   1.000  H 
  H37      1.0000 0.29711  0.93315  0.84531  Biso   1.000  H 
  H38      1.0000 0.29736  0.07231  0.34619  Biso   1.000  H 
  H39      1.0000 0.82580  0.09741  0.45558  Biso   1.000  H 
  H40      1.0000 0.24377  0.47444  0.92022  Biso   1.000  H 
  N1       1.0000 0.52214  0.86593  0.25986  Biso   1.000  N 
  N2       1.0000 0.52713  0.08391  0.58301  Biso   1.000  N 
  N3       1.0000 0.02183  0.63939  0.75813  Biso   1.000  N 
  N4       1.0000 0.93867  0.36524  0.59362  Biso   1.000  N 
  N5       1.0000 0.02713  0.58384  0.58299  Biso   1.000  N 
  N6       1.0000 0.02728  0.42138  0.08380  Biso   1.000  N 
  N7       1.0000 0.43867  0.86529  0.59362  Biso   1.000  N 
  N8       1.0000 0.43338  0.08351  0.26804  Biso   1.000  N 
  N9       1.0000 0.02214  0.36588  0.25984  Biso   1.000  N 
  N10      1.0000 0.52183  0.13944  0.75816  Biso   1.000  N 
  N11      1.0000 0.43328  0.92101  0.76861  Biso   1.000  N 
  N12      1.0000 0.93337  0.58346  0.26799  Biso   1.000  N 
  N13      1.0000 0.52727  0.92142  0.08381  Biso   1.000  N 
  N14      1.0000 0.93862  0.63902  0.09209  Biso   1.000  N 
  N15      1.0000 0.93328  0.42097  0.76860  Biso   1.000  N 
  N16      1.0000 0.43862  0.13904  0.09212  Biso   1.000  N 
  Zn1      1.0000 0.98020  0.53717  0.92563  Biso   1.000  Zn
  Zn2      1.0000 0.48035  0.96713  0.42615  Biso   1.000  Zn
  Zn3      1.0000 0.48020  0.03720  0.92563  Biso   1.000  Zn
  Zn4      1.0000 0.98034  0.46710  0.42611  Biso   1.000  Zn
