data_image0
_cell_length_a       26.3617
_cell_length_b       16.4055
_cell_length_c       6.71982
_cell_angle_alpha    90.0632
_cell_angle_beta     106.289
_cell_angle_gamma    90.004

_symmetry_space_group_name_H-M    "P 1"
_symmetry_int_tables_number       1

loop_
  _symmetry_equiv_pos_as_xyz
  'x, y, z'

loop_
  _atom_site_label
  _atom_site_occupancy
  _atom_site_fract_x
  _atom_site_fract_y
  _atom_site_fract_z
  _atom_site_thermal_displace_type
  _atom_site_B_iso_or_equiv
  _atom_site_type_symbol
  C1       1.0000 0.59900  0.14050  0.71455  Biso   1.000  C 
  C2       1.0000 0.21060  0.21519  0.40600  Biso   1.000  C 
  C3       1.0000 0.81399  0.68697  0.12381  Biso   1.000  C 
  C4       1.0000 0.56484  0.86190  0.34090  Biso   1.000  C 
  C5       1.0000 0.36128  0.86711  0.63604  Biso   1.000  C 
  C6       1.0000 0.57713  0.07816  0.57205  Biso   1.000  C 
  C7       1.0000 0.39594  0.86245  0.51074  Biso   1.000  C 
  C8       1.0000 0.16539  0.74621  0.89065  Biso   1.000  C 
  C9       1.0000 0.14639  0.68890  0.72692  Biso   1.000  C 
  C10      1.0000 0.67439  0.18007  0.58082  Biso   1.000  C 
  C11      1.0000 0.72056  0.22570  0.59181  Biso   1.000  C 
  C12      1.0000 0.21011  0.79178  0.90521  Biso   1.000  C 
  C13      1.0000 0.71061  0.71522  0.40604  Biso   1.000  C 
  C14      1.0000 0.22116  0.28111  0.09296  Biso   1.000  C 
  C15      1.0000 0.17499  0.32677  0.08200  Biso   1.000  C 
  C16      1.0000 0.86128  0.36711  0.63606  Biso   1.000  C 
  C17      1.0000 0.07713  0.57817  0.57210  Biso   1.000  C 
  C18      1.0000 0.66589  0.76077  0.39145  Biso   1.000  C 
  C19      1.0000 0.89595  0.36245  0.51077  Biso   1.000  C 
  C20      1.0000 0.64693  0.81795  0.22776  Biso   1.000  C 
  C21      1.0000 0.89631  0.64347  0.01169  Biso   1.000  C 
  C22      1.0000 0.38361  0.07696  0.27940  Biso   1.000  C 
  C23      1.0000 0.59942  0.86605  0.21521  Biso   1.000  C 
  C24      1.0000 0.86158  0.63903  0.13675  Biso   1.000  C 
  C25      1.0000 0.71010  0.29177  0.90514  Biso   1.000  C 
  C26      1.0000 0.22056  0.72570  0.59187  Biso   1.000  C 
  C27      1.0000 0.17439  0.68007  0.58091  Biso   1.000  C 
  C28      1.0000 0.07741  0.42812  0.07258  Biso   1.000  C 
  C29      1.0000 0.64639  0.18889  0.72684  Biso   1.000  C 
  C30      1.0000 0.66538  0.24621  0.89056  Biso   1.000  C 
  C31      1.0000 0.79446  0.26232  0.45899  Biso   1.000  C 
  C32      1.0000 0.36158  0.13902  0.13670  Biso   1.000  C 
  C33      1.0000 0.88356  0.42898  0.77934  Biso   1.000  C 
  C34      1.0000 0.24962  0.71700  0.44417  Biso   1.000  C 
  C35      1.0000 0.38356  0.92898  0.77932  Biso   1.000  C 
  C36      1.0000 0.29501  0.24412  0.96004  Biso   1.000  C 
  C37      1.0000 0.57741  0.92814  0.07258  Biso   1.000  C 
  C38      1.0000 0.39631  0.14348  0.01166  Biso   1.000  C 
  C39      1.0000 0.06485  0.36190  0.34095  Biso   1.000  C 
  C40      1.0000 0.09942  0.36604  0.21522  Biso   1.000  C 
  C41      1.0000 0.31399  0.18696  0.12377  Biso   1.000  C 
  C42      1.0000 0.16589  0.26074  0.39142  Biso   1.000  C 
  C43      1.0000 0.67500  0.82679  0.08201  Biso   1.000  C 
  C44      1.0000 0.72116  0.78114  0.09300  Biso   1.000  C 
  C45      1.0000 0.75027  0.78963  0.94537  Biso   1.000  C 
  C46      1.0000 0.23970  0.22366  0.25836  Biso   1.000  C 
  C47      1.0000 0.28589  0.17805  0.26939  Biso   1.000  C 
  C48      1.0000 0.09900  0.64050  0.71462  Biso   1.000  C 
  C49      1.0000 0.88362  0.57697  0.27946  Biso   1.000  C 
  C50      1.0000 0.79501  0.74413  0.96007  Biso   1.000  C 
  C51      1.0000 0.14693  0.31793  0.22775  Biso   1.000  C 
  C52      1.0000 0.56450  0.14439  0.84061  Biso   1.000  C 
  C53      1.0000 0.73919  0.28319  0.75743  Biso   1.000  C 
  C54      1.0000 0.78546  0.32865  0.76860  Biso   1.000  C 
  C55      1.0000 0.73970  0.72370  0.25839  Biso   1.000  C 
  C56      1.0000 0.28546  0.82866  0.76860  Biso   1.000  C 
  C57      1.0000 0.81355  0.31949  0.62296  Biso   1.000  C 
  C58      1.0000 0.74963  0.21701  0.44412  Biso   1.000  C 
  C59      1.0000 0.31355  0.81949  0.62294  Biso   1.000  C 
  C60      1.0000 0.29446  0.76232  0.45900  Biso   1.000  C 
  C61      1.0000 0.06450  0.64439  0.84070  Biso   1.000  C 
  C62      1.0000 0.25026  0.28961  0.94533  Biso   1.000  C 
  C63      1.0000 0.78590  0.67808  0.26945  Biso   1.000  C 
  C64      1.0000 0.23919  0.78319  0.75748  Biso   1.000  C 
  H1       1.0000 0.73641  0.83266  0.81789  Biso   1.000  H 
  H2       1.0000 0.14427  0.75393  0.00765  Biso   1.000  H 
  H3       1.0000 0.81618  0.75182  0.84327  Biso   1.000  H 
  H4       1.0000 0.09049  0.45262  0.94519  Biso   1.000  H 
  H5       1.0000 0.87051  0.45370  0.90669  Biso   1.000  H 
  H6       1.0000 0.89506  0.68234  0.87969  Biso   1.000  H 
  H7       1.0000 0.16104  0.63680  0.45327  Biso   1.000  H 
  H8       1.0000 0.79924  0.63491  0.39706  Biso   1.000  H 
  H9       1.0000 0.29889  0.87190  0.89627  Biso   1.000  H 
  H10      1.0000 0.31618  0.25182  0.84325  Biso   1.000  H 
  H11      1.0000 0.59023  0.05372  0.44452  Biso   1.000  H 
  H12      1.0000 0.66104  0.13680  0.45319  Biso   1.000  H 
  H13      1.0000 0.39455  0.82361  0.37833  Biso   1.000  H 
  H14      1.0000 0.56571  0.18323  0.97286  Biso   1.000  H 
  H15      1.0000 0.73569  0.17392  0.31659  Biso   1.000  H 
  H16      1.0000 0.81563  0.25448  0.34218  Biso   1.000  H 
  H17      1.0000 0.22400  0.83487  0.03281  Biso   1.000  H 
  H18      1.0000 0.29924  0.13488  0.39699  Biso   1.000  H 
  H19      1.0000 0.23640  0.33265  0.81787  Biso   1.000  H 
  H20      1.0000 0.39507  0.18234  0.87967  Biso   1.000  H 
  H21      1.0000 0.37051  0.95370  0.90666  Biso   1.000  H 
  H22      1.0000 0.59051  0.95265  0.94523  Biso   1.000  H 
  H23      1.0000 0.06571  0.68322  0.97297  Biso   1.000  H 
  H24      1.0000 0.22446  0.17217  0.53350  Biso   1.000  H 
  H25      1.0000 0.89456  0.32360  0.37837  Biso   1.000  H 
  H26      1.0000 0.64473  0.75313  0.50831  Biso   1.000  H 
  H27      1.0000 0.56609  0.82307  0.47296  Biso   1.000  H 
  H28      1.0000 0.79889  0.37188  0.89628  Biso   1.000  H 
  H29      1.0000 0.14473  0.25310  0.50828  Biso   1.000  H 
  H30      1.0000 0.87044  0.55230  0.40645  Biso   1.000  H 
  H31      1.0000 0.72447  0.67221  0.53357  Biso   1.000  H 
  H32      1.0000 0.06611  0.32309  0.47306  Biso   1.000  H 
  H33      1.0000 0.37044  0.05228  0.40636  Biso   1.000  H 
  H34      1.0000 0.31562  0.75447  0.34218  Biso   1.000  H 
  H35      1.0000 0.23568  0.67391  0.31664  Biso   1.000  H 
  H36      1.0000 0.16169  0.37000  0.95453  Biso   1.000  H 
  H37      1.0000 0.09022  0.55375  0.44457  Biso   1.000  H 
  H38      1.0000 0.72399  0.33486  0.03275  Biso   1.000  H 
  H39      1.0000 0.66169  0.87001  0.95454  Biso   1.000  H 
  H40      1.0000 0.64425  0.25392  0.00756  Biso   1.000  H 
  N1       1.0000 0.43580  0.08891  0.07698  Biso   1.000  N 
  N2       1.0000 0.92759  0.54743  0.24143  Biso   1.000  N 
  N3       1.0000 0.52529  0.08923  0.77607  Biso   1.000  N 
  N4       1.0000 0.93580  0.58890  0.07702  Biso   1.000  N 
  N5       1.0000 0.92761  0.45823  0.74143  Biso   1.000  N 
  N6       1.0000 0.02547  0.41669  0.27609  Biso   1.000  N 
  N7       1.0000 0.42760  0.95824  0.74140  Biso   1.000  N 
  N8       1.0000 0.53359  0.95799  0.11126  Biso   1.000  N 
  N9       1.0000 0.93564  0.41676  0.57651  Biso   1.000  N 
  N10      1.0000 0.52545  0.91668  0.27602  Biso   1.000  N 
  N11      1.0000 0.42759  0.04743  0.24138  Biso   1.000  N 
  N12      1.0000 0.03345  0.54795  0.61115  Biso   1.000  N 
  N13      1.0000 0.43563  0.91676  0.57647  Biso   1.000  N 
  N14      1.0000 0.03359  0.45798  0.11128  Biso   1.000  N 
  N15      1.0000 0.53346  0.04794  0.61110  Biso   1.000  N 
  N16      1.0000 0.02529  0.58923  0.77613  Biso   1.000  N 
  Zn1      1.0000 0.98068  0.53376  0.92683  Biso   1.000  Zn
  Zn2      1.0000 0.48057  0.97180  0.42645  Biso   1.000  Zn
  Zn3      1.0000 0.48069  0.03377  0.92678  Biso   1.000  Zn
  Zn4      1.0000 0.98058  0.47180  0.42650  Biso   1.000  Zn
