data_image0
_cell_length_a       24.1348
_cell_length_b       19.6394
_cell_length_c       6.9641
_cell_angle_alpha    90.2225
_cell_angle_beta     105.793
_cell_angle_gamma    89.9963

_symmetry_space_group_name_H-M    "P 1"
_symmetry_int_tables_number       1

loop_
  _symmetry_equiv_pos_as_xyz
  'x, y, z'

loop_
  _atom_site_label
  _atom_site_occupancy
  _atom_site_fract_x
  _atom_site_fract_y
  _atom_site_fract_z
  _atom_site_thermal_displace_type
  _atom_site_B_iso_or_equiv
  _atom_site_type_symbol
  C1       1.0000 0.60066  0.13228  0.71506  Biso   1.000  C 
  C2       1.0000 0.20631  0.23254  0.40212  Biso   1.000  C 
  C3       1.0000 0.81311  0.68067  0.12384  Biso   1.000  C 
  C4       1.0000 0.56510  0.88237  0.34431  Biso   1.000  C 
  C5       1.0000 0.36058  0.87428  0.63746  Biso   1.000  C 
  C6       1.0000 0.57921  0.08222  0.56828  Biso   1.000  C 
  C7       1.0000 0.39501  0.88258  0.50535  Biso   1.000  C 
  C8       1.0000 0.16372  0.72778  0.88994  Biso   1.000  C 
  C9       1.0000 0.14751  0.68084  0.72740  Biso   1.000  C 
  C10      1.0000 0.67760  0.18277  0.58317  Biso   1.000  C 
  C11      1.0000 0.72302  0.22944  0.59445  Biso   1.000  C 
  C12      1.0000 0.20770  0.77382  0.90522  Biso   1.000  C 
  C13      1.0000 0.70630  0.73254  0.40211  Biso   1.000  C 
  C14      1.0000 0.22195  0.27632  0.09219  Biso   1.000  C 
  C15      1.0000 0.17666  0.32311  0.08109  Biso   1.000  C 
  C16      1.0000 0.86059  0.37428  0.63745  Biso   1.000  C 
  C17      1.0000 0.07922  0.58222  0.56831  Biso   1.000  C 
  C18      1.0000 0.66249  0.77874  0.38717  Biso   1.000  C 
  C19      1.0000 0.89502  0.38257  0.50536  Biso   1.000  C 
  C20      1.0000 0.64652  0.82548  0.22515  Biso   1.000  C 
  C21      1.0000 0.89500  0.62427  0.00626  Biso   1.000  C 
  C22      1.0000 0.38089  0.08192  0.28230  Biso   1.000  C 
  C23      1.0000 0.59995  0.87435  0.21332  Biso   1.000  C 
  C24      1.0000 0.85994  0.63209  0.13661  Biso   1.000  C 
  C25      1.0000 0.70770  0.27381  0.90519  Biso   1.000  C 
  C26      1.0000 0.22301  0.72945  0.59447  Biso   1.000  C 
  C27      1.0000 0.17760  0.68278  0.58320  Biso   1.000  C 
  C28      1.0000 0.07925  0.42481  0.06845  Biso   1.000  C 
  C29      1.0000 0.64751  0.18083  0.72736  Biso   1.000  C 
  C30      1.0000 0.66372  0.22778  0.88990  Biso   1.000  C 
  C31      1.0000 0.79797  0.27827  0.46318  Biso   1.000  C 
  C32      1.0000 0.35995  0.13210  0.13662  Biso   1.000  C 
  C33      1.0000 0.88169  0.42459  0.78383  Biso   1.000  C 
  C34      1.0000 0.25412  0.73205  0.44824  Biso   1.000  C 
  C35      1.0000 0.38168  0.92459  0.78383  Biso   1.000  C 
  C36      1.0000 0.29707  0.22731  0.96155  Biso   1.000  C 
  C37      1.0000 0.57924  0.92482  0.06844  Biso   1.000  C 
  C38      1.0000 0.39501  0.12428  0.00627  Biso   1.000  C 
  C39      1.0000 0.06510  0.38236  0.34431  Biso   1.000  C 
  C40      1.0000 0.09995  0.37434  0.21333  Biso   1.000  C 
  C41      1.0000 0.31311  0.18068  0.12384  Biso   1.000  C 
  C42      1.0000 0.16249  0.27874  0.38718  Biso   1.000  C 
  C43      1.0000 0.67665  0.82311  0.08108  Biso   1.000  C 
  C44      1.0000 0.72194  0.77632  0.09218  Biso   1.000  C 
  C45      1.0000 0.75316  0.77343  0.94629  Biso   1.000  C 
  C46      1.0000 0.23752  0.22968  0.25622  Biso   1.000  C 
  C47      1.0000 0.28288  0.18298  0.26759  Biso   1.000  C 
  C48      1.0000 0.10066  0.63229  0.71510  Biso   1.000  C 
  C49      1.0000 0.88089  0.58193  0.28232  Biso   1.000  C 
  C50      1.0000 0.79707  0.72731  0.96155  Biso   1.000  C 
  C51      1.0000 0.14653  0.32548  0.22516  Biso   1.000  C 
  C52      1.0000 0.56621  0.12425  0.84720  Biso   1.000  C 
  C53      1.0000 0.73878  0.27636  0.75893  Biso   1.000  C 
  C54      1.0000 0.78410  0.32312  0.77005  Biso   1.000  C 
  C55      1.0000 0.73751  0.72967  0.25620  Biso   1.000  C 
  C56      1.0000 0.28409  0.82313  0.77006  Biso   1.000  C 
  C57      1.0000 0.81407  0.32531  0.62555  Biso   1.000  C 
  C58      1.0000 0.75412  0.23205  0.44822  Biso   1.000  C 
  C59      1.0000 0.31406  0.82531  0.62555  Biso   1.000  C 
  C60      1.0000 0.29796  0.77828  0.46319  Biso   1.000  C 
  C61      1.0000 0.06621  0.62426  0.84723  Biso   1.000  C 
  C62      1.0000 0.25316  0.27343  0.94629  Biso   1.000  C 
  C63      1.0000 0.78287  0.68297  0.26758  Biso   1.000  C 
  C64      1.0000 0.23878  0.77636  0.75895  Biso   1.000  C 
  H1       1.0000 0.74179  0.80837  0.82010  Biso   1.000  H 
  H2       1.0000 0.14079  0.72737  0.00498  Biso   1.000  H 
  H3       1.0000 0.82008  0.72659  0.84671  Biso   1.000  H 
  H4       1.0000 0.09294  0.43796  0.93702  Biso   1.000  H 
  H5       1.0000 0.86840  0.43751  0.91649  Biso   1.000  H 
  H6       1.0000 0.89465  0.65173  0.87088  Biso   1.000  H 
  H7       1.0000 0.16658  0.64750  0.45682  Biso   1.000  H 
  H8       1.0000 0.79375  0.64800  0.39383  Biso   1.000  H 
  H9       1.0000 0.29507  0.85839  0.89647  Biso   1.000  H 
  H10      1.0000 0.32008  0.22659  0.84670  Biso   1.000  H 
  H11      1.0000 0.59238  0.06924  0.43541  Biso   1.000  H 
  H12      1.0000 0.66659  0.14750  0.45679  Biso   1.000  H 
  H13      1.0000 0.39434  0.85520  0.36895  Biso   1.000  H 
  H14      1.0000 0.56712  0.15158  0.98389  Biso   1.000  H 
  H15      1.0000 0.74267  0.19681  0.32188  Biso   1.000  H 
  H16      1.0000 0.82085  0.27878  0.34797  Biso   1.000  H 
  H17      1.0000 0.21926  0.80897  0.03166  Biso   1.000  H 
  H18      1.0000 0.29376  0.14801  0.39385  Biso   1.000  H 
  H19      1.0000 0.24179  0.30837  0.82010  Biso   1.000  H 
  H20      1.0000 0.39467  0.15175  0.87090  Biso   1.000  H 
  H21      1.0000 0.36840  0.93752  0.91651  Biso   1.000  H 
  H22      1.0000 0.59294  0.93796  0.93703  Biso   1.000  H 
  H23      1.0000 0.06711  0.65158  0.98392  Biso   1.000  H 
  H24      1.0000 0.21770  0.19754  0.52813  Biso   1.000  H 
  H25      1.0000 0.89436  0.35518  0.36897  Biso   1.000  H 
  H26      1.0000 0.63953  0.77948  0.50213  Biso   1.000  H 
  H27      1.0000 0.56539  0.85476  0.47939  Biso   1.000  H 
  H28      1.0000 0.79508  0.35838  0.89646  Biso   1.000  H 
  H29      1.0000 0.13953  0.27947  0.50213  Biso   1.000  H 
  H30      1.0000 0.86715  0.56875  0.41363  Biso   1.000  H 
  H31      1.0000 0.71769  0.69754  0.52811  Biso   1.000  H 
  H32      1.0000 0.06539  0.35476  0.47941  Biso   1.000  H 
  H33      1.0000 0.36715  0.06874  0.41360  Biso   1.000  H 
  H34      1.0000 0.32085  0.77878  0.34798  Biso   1.000  H 
  H35      1.0000 0.24267  0.69681  0.32190  Biso   1.000  H 
  H36      1.0000 0.16579  0.35814  0.95495  Biso   1.000  H 
  H37      1.0000 0.09238  0.56924  0.43544  Biso   1.000  H 
  H38      1.0000 0.71926  0.30897  0.03163  Biso   1.000  H 
  H39      1.0000 0.66579  0.85814  0.95494  Biso   1.000  H 
  H40      1.0000 0.64079  0.22736  0.00494  Biso   1.000  H 
  N1       1.0000 0.43353  0.07392  0.07076  Biso   1.000  N 
  N2       1.0000 0.92452  0.54751  0.24093  Biso   1.000  N 
  N3       1.0000 0.52755  0.07385  0.78270  Biso   1.000  N 
  N4       1.0000 0.93352  0.57391  0.07076  Biso   1.000  N 
  N5       1.0000 0.92481  0.45953  0.74116  Biso   1.000  N 
  N6       1.0000 0.02692  0.43315  0.28093  Biso   1.000  N 
  N7       1.0000 0.42480  0.95953  0.74116  Biso   1.000  N 
  N8       1.0000 0.53596  0.95963  0.11089  Biso   1.000  N 
  N9       1.0000 0.93335  0.43331  0.56955  Biso   1.000  N 
  N10      1.0000 0.52692  0.93315  0.28091  Biso   1.000  N 
  N11      1.0000 0.42452  0.04751  0.24090  Biso   1.000  N 
  N12      1.0000 0.03589  0.54765  0.61078  Biso   1.000  N 
  N13      1.0000 0.43334  0.93332  0.56954  Biso   1.000  N 
  N14      1.0000 0.03597  0.45962  0.11091  Biso   1.000  N 
  N15      1.0000 0.53589  0.04765  0.61075  Biso   1.000  N 
  N16      1.0000 0.02755  0.57385  0.78272  Biso   1.000  N 
  Zn1      1.0000 0.98052  0.52271  0.92636  Biso   1.000  Zn
  Zn2      1.0000 0.48011  0.98463  0.42564  Biso   1.000  Zn
  Zn3      1.0000 0.48051  0.02271  0.92638  Biso   1.000  Zn
  Zn4      1.0000 0.98011  0.48463  0.42566  Biso   1.000  Zn
