data_image0
_cell_length_a       28.1078
_cell_length_b       12.8233
_cell_length_c       6.72749
_cell_angle_alpha    90.0864
_cell_angle_beta     101.906
_cell_angle_gamma    89.9998

_symmetry_space_group_name_H-M    "P 1"
_symmetry_int_tables_number       1

loop_
  _symmetry_equiv_pos_as_xyz
  'x, y, z'

loop_
  _atom_site_label
  _atom_site_occupancy
  _atom_site_fract_x
  _atom_site_fract_y
  _atom_site_fract_z
  _atom_site_thermal_displace_type
  _atom_site_B_iso_or_equiv
  _atom_site_type_symbol
  C1       1.0000 0.59715  0.15524  0.70727  Biso   1.000  C 
  C2       1.0000 0.36354  0.15440  0.14461  Biso   1.000  C 
  C3       1.0000 0.21310  0.20354  0.41293  Biso   1.000  C 
  C4       1.0000 0.81498  0.69895  0.12817  Biso   1.000  C 
  C5       1.0000 0.56342  0.83609  0.33238  Biso   1.000  C 
  C6       1.0000 0.36349  0.85201  0.64432  Biso   1.000  C 
  C7       1.0000 0.39722  0.83675  0.51874  Biso   1.000  C 
  C8       1.0000 0.16718  0.76204  0.89449  Biso   1.000  C 
  C9       1.0000 0.14558  0.70038  0.72297  Biso   1.000  C 
  C10      1.0000 0.67221  0.18262  0.57332  Biso   1.000  C 
  C11      1.0000 0.71956  0.22324  0.58826  Biso   1.000  C 
  C12      1.0000 0.21313  0.80313  0.91311  Biso   1.000  C 
  C13      1.0000 0.71310  0.70353  0.41294  Biso   1.000  C 
  C14      1.0000 0.21962  0.28308  0.08839  Biso   1.000  C 
  C15      1.0000 0.17226  0.32365  0.07325  Biso   1.000  C 
  C16      1.0000 0.57371  0.08303  0.56161  Biso   1.000  C 
  C17      1.0000 0.07371  0.58303  0.56161  Biso   1.000  C 
  C18      1.0000 0.86350  0.35200  0.64432  Biso   1.000  C 
  C19      1.0000 0.66719  0.26202  0.89449  Biso   1.000  C 
  C20      1.0000 0.64558  0.20037  0.72297  Biso   1.000  C 
  C21      1.0000 0.07379  0.42346  0.06169  Biso   1.000  C 
  C22      1.0000 0.21955  0.72326  0.58826  Biso   1.000  C 
  C23      1.0000 0.71313  0.30311  0.91311  Biso   1.000  C 
  C24      1.0000 0.17220  0.68263  0.57333  Biso   1.000  C 
  C25      1.0000 0.59714  0.85110  0.20675  Biso   1.000  C 
  C26      1.0000 0.38697  0.08234  0.29010  Biso   1.000  C 
  C27      1.0000 0.89734  0.66977  0.01949  Biso   1.000  C 
  C28      1.0000 0.64558  0.80600  0.22263  Biso   1.000  C 
  C29      1.0000 0.66715  0.74454  0.39414  Biso   1.000  C 
  C30      1.0000 0.86354  0.65440  0.14462  Biso   1.000  C 
  C31      1.0000 0.79326  0.24609  0.45594  Biso   1.000  C 
  C32      1.0000 0.24738  0.30100  0.93749  Biso   1.000  C 
  C33      1.0000 0.89722  0.33674  0.51874  Biso   1.000  C 
  C34      1.0000 0.24724  0.70531  0.43699  Biso   1.000  C 
  C35      1.0000 0.88703  0.42390  0.79041  Biso   1.000  C 
  C36      1.0000 0.38703  0.92391  0.79042  Biso   1.000  C 
  C37      1.0000 0.29339  0.26024  0.95650  Biso   1.000  C 
  C38      1.0000 0.57379  0.92346  0.06171  Biso   1.000  C 
  C39      1.0000 0.39734  0.16977  0.01949  Biso   1.000  C 
  C40      1.0000 0.09714  0.35110  0.20674  Biso   1.000  C 
  C41      1.0000 0.31498  0.19894  0.12816  Biso   1.000  C 
  C42      1.0000 0.16715  0.24455  0.39412  Biso   1.000  C 
  C43      1.0000 0.67226  0.82365  0.07328  Biso   1.000  C 
  C44      1.0000 0.71962  0.78308  0.08842  Biso   1.000  C 
  C45      1.0000 0.74738  0.80101  0.93752  Biso   1.000  C 
  C46      1.0000 0.24084  0.22136  0.26191  Biso   1.000  C 
  C47      1.0000 0.28825  0.18103  0.27727  Biso   1.000  C 
  C48      1.0000 0.09715  0.65525  0.70726  Biso   1.000  C 
  C49      1.0000 0.06342  0.33610  0.33237  Biso   1.000  C 
  C50      1.0000 0.79339  0.76025  0.95653  Biso   1.000  C 
  C51      1.0000 0.88697  0.58234  0.29012  Biso   1.000  C 
  C52      1.0000 0.24082  0.78513  0.76189  Biso   1.000  C 
  C53      1.0000 0.78825  0.68103  0.27729  Biso   1.000  C 
  C54      1.0000 0.06351  0.67008  0.83339  Biso   1.000  C 
  C55      1.0000 0.31491  0.80749  0.62780  Biso   1.000  C 
  C56      1.0000 0.74725  0.20530  0.43699  Biso   1.000  C 
  C57      1.0000 0.29325  0.74611  0.45594  Biso   1.000  C 
  C58      1.0000 0.28822  0.82552  0.77708  Biso   1.000  C 
  C59      1.0000 0.74084  0.72136  0.26193  Biso   1.000  C 
  C60      1.0000 0.78822  0.32550  0.77709  Biso   1.000  C 
  C61      1.0000 0.74083  0.28511  0.76189  Biso   1.000  C 
  C62      1.0000 0.56351  0.17007  0.83340  Biso   1.000  C 
  C63      1.0000 0.14558  0.30600  0.22260  Biso   1.000  C 
  C64      1.0000 0.81492  0.30748  0.62780  Biso   1.000  C 
  H1       1.0000 0.39495  0.21832  0.88568  Biso   1.000  H 
  H2       1.0000 0.15678  0.63592  0.43966  Biso   1.000  H 
  H3       1.0000 0.73150  0.84731  0.80427  Biso   1.000  H 
  H4       1.0000 0.14710  0.77642  0.01431  Biso   1.000  H 
  H5       1.0000 0.81355  0.77469  0.83702  Biso   1.000  H 
  H6       1.0000 0.08620  0.45833  0.93444  Biso   1.000  H 
  H7       1.0000 0.89494  0.71832  0.88568  Biso   1.000  H 
  H8       1.0000 0.80366  0.63455  0.41099  Biso   1.000  H 
  H9       1.0000 0.81335  0.23165  0.33614  Biso   1.000  H 
  H10      1.0000 0.31354  0.27468  0.83699  Biso   1.000  H 
  H11      1.0000 0.58605  0.04829  0.43387  Biso   1.000  H 
  H12      1.0000 0.65678  0.13591  0.43965  Biso   1.000  H 
  H13      1.0000 0.39474  0.78833  0.38440  Biso   1.000  H 
  H14      1.0000 0.56598  0.21849  0.96771  Biso   1.000  H 
  H15      1.0000 0.22903  0.84961  0.04635  Biso   1.000  H 
  H16      1.0000 0.30365  0.87216  0.91082  Biso   1.000  H 
  H17      1.0000 0.30366  0.13455  0.41097  Biso   1.000  H 
  H18      1.0000 0.23150  0.34730  0.80424  Biso   1.000  H 
  H19      1.0000 0.87468  0.45876  0.91800  Biso   1.000  H 
  H20      1.0000 0.73130  0.15904  0.30348  Biso   1.000  H 
  H21      1.0000 0.72904  0.34959  0.04636  Biso   1.000  H 
  H22      1.0000 0.72899  0.65722  0.54620  Biso   1.000  H 
  H23      1.0000 0.37468  0.95877  0.91801  Biso   1.000  H 
  H24      1.0000 0.06597  0.71850  0.96769  Biso   1.000  H 
  H25      1.0000 0.14702  0.23028  0.51379  Biso   1.000  H 
  H26      1.0000 0.22899  0.15723  0.54619  Biso   1.000  H 
  H27      1.0000 0.89475  0.28833  0.38440  Biso   1.000  H 
  H28      1.0000 0.56580  0.78748  0.46608  Biso   1.000  H 
  H29      1.0000 0.80365  0.37214  0.91083  Biso   1.000  H 
  H30      1.0000 0.87452  0.54730  0.41713  Biso   1.000  H 
  H31      1.0000 0.64702  0.73027  0.51381  Biso   1.000  H 
  H32      1.0000 0.06581  0.28749  0.46608  Biso   1.000  H 
  H33      1.0000 0.37452  0.04729  0.41710  Biso   1.000  H 
  H34      1.0000 0.31335  0.73167  0.33614  Biso   1.000  H 
  H35      1.0000 0.23130  0.65906  0.30347  Biso   1.000  H 
  H36      1.0000 0.15689  0.37024  0.93965  Biso   1.000  H 
  H37      1.0000 0.65689  0.87025  0.93968  Biso   1.000  H 
  H38      1.0000 0.64710  0.27641  0.01432  Biso   1.000  H 
  H39      1.0000 0.08606  0.54829  0.43388  Biso   1.000  H 
  H40      1.0000 0.58621  0.95833  0.93448  Biso   1.000  H 
  N1       1.0000 0.02335  0.39477  0.26604  Biso   1.000  N 
  N2       1.0000 0.93078  0.44930  0.75310  Biso   1.000  N 
  N3       1.0000 0.93753  0.61156  0.08654  Biso   1.000  N 
  N4       1.0000 0.53014  0.94928  0.09957  Biso   1.000  N 
  N5       1.0000 0.93075  0.55698  0.25296  Biso   1.000  N 
  N6       1.0000 0.43078  0.94931  0.75310  Biso   1.000  N 
  N7       1.0000 0.52340  0.11148  0.76670  Biso   1.000  N 
  N8       1.0000 0.43753  0.11156  0.08654  Biso   1.000  N 
  N9       1.0000 0.43075  0.05698  0.25295  Biso   1.000  N 
  N10      1.0000 0.03013  0.44928  0.09956  Biso   1.000  N 
  N11      1.0000 0.52335  0.89477  0.26604  Biso   1.000  N 
  N12      1.0000 0.53008  0.05715  0.59957  Biso   1.000  N 
  N13      1.0000 0.02340  0.61148  0.76671  Biso   1.000  N 
  N14      1.0000 0.43745  0.89491  0.58602  Biso   1.000  N 
  N15      1.0000 0.03008  0.55715  0.59958  Biso   1.000  N 
  N16      1.0000 0.93745  0.39490  0.58601  Biso   1.000  N 
  Zn1      1.0000 0.48042  0.96403  0.42626  Biso   1.000  Zn
  Zn2      1.0000 0.48051  0.04229  0.92673  Biso   1.000  Zn
  Zn3      1.0000 0.98051  0.54229  0.92673  Biso   1.000  Zn
  Zn4      1.0000 0.98042  0.46403  0.42625  Biso   1.000  Zn
