data_image0
_cell_length_a       27.6527
_cell_length_b       13.9082
_cell_length_c       6.72302
_cell_angle_alpha    90.1391
_cell_angle_beta     103.189
_cell_angle_gamma    90.002

_symmetry_space_group_name_H-M    "P 1"
_symmetry_int_tables_number       1

loop_
  _symmetry_equiv_pos_as_xyz
  'x, y, z'

loop_
  _atom_site_label
  _atom_site_occupancy
  _atom_site_fract_x
  _atom_site_fract_y
  _atom_site_fract_z
  _atom_site_thermal_displace_type
  _atom_site_B_iso_or_equiv
  _atom_site_type_symbol
  C1       1.0000 0.59774  0.14937  0.70971  Biso   1.000  C 
  C2       1.0000 0.38609  0.92652  0.78688  Biso   1.000  C 
  C3       1.0000 0.29379  0.25453  0.95766  Biso   1.000  C 
  C4       1.0000 0.57475  0.92598  0.06533  Biso   1.000  C 
  C5       1.0000 0.39713  0.16032  0.01784  Biso   1.000  C 
  C6       1.0000 0.06376  0.34559  0.33458  Biso   1.000  C 
  C7       1.0000 0.09776  0.35714  0.20934  Biso   1.000  C 
  C8       1.0000 0.31464  0.19417  0.12667  Biso   1.000  C 
  C9       1.0000 0.16670  0.25019  0.39280  Biso   1.000  C 
  C10      1.0000 0.67303  0.82551  0.07615  Biso   1.000  C 
  C11      1.0000 0.72001  0.78266  0.08979  Biso   1.000  C 
  C12      1.0000 0.74814  0.79732  0.94002  Biso   1.000  C 
  C13      1.0000 0.24043  0.22182  0.26037  Biso   1.000  C 
  C14      1.0000 0.28746  0.17917  0.27432  Biso   1.000  C 
  C15      1.0000 0.09774  0.64936  0.70972  Biso   1.000  C 
  C16      1.0000 0.88607  0.57985  0.28696  Biso   1.000  C 
  C17      1.0000 0.79380  0.75454  0.95771  Biso   1.000  C 
  C18      1.0000 0.14593  0.31079  0.22412  Biso   1.000  C 
  C19      1.0000 0.56387  0.16081  0.83569  Biso   1.000  C 
  C20      1.0000 0.74042  0.28463  0.76029  Biso   1.000  C 
  C21      1.0000 0.78747  0.32726  0.77412  Biso   1.000  C 
  C22      1.0000 0.74043  0.72182  0.26040  Biso   1.000  C 
  C23      1.0000 0.28746  0.82729  0.77410  Biso   1.000  C 
  C24      1.0000 0.81454  0.31216  0.62604  Biso   1.000  C 
  C25      1.0000 0.74791  0.20892  0.43905  Biso   1.000  C 
  C26      1.0000 0.31453  0.81218  0.62601  Biso   1.000  C 
  C27      1.0000 0.29357  0.75169  0.45668  Biso   1.000  C 
  C28      1.0000 0.06387  0.66081  0.83570  Biso   1.000  C 
  C29      1.0000 0.78747  0.67918  0.27436  Biso   1.000  C 
  C30      1.0000 0.24042  0.78465  0.76029  Biso   1.000  C 
  C31      1.0000 0.24790  0.70893  0.43906  Biso   1.000  C 
  C32      1.0000 0.88609  0.42652  0.78688  Biso   1.000  C 
  C33      1.0000 0.24814  0.29731  0.93998  Biso   1.000  C 
  C34      1.0000 0.79358  0.25168  0.45669  Biso   1.000  C 
  C35      1.0000 0.36298  0.14840  0.14234  Biso   1.000  C 
  C36      1.0000 0.21228  0.20713  0.41011  Biso   1.000  C 
  C37      1.0000 0.81464  0.69418  0.12672  Biso   1.000  C 
  C38      1.0000 0.56376  0.84557  0.33461  Biso   1.000  C 
  C39      1.0000 0.36287  0.85800  0.64164  Biso   1.000  C 
  C40      1.0000 0.39689  0.84613  0.51651  Biso   1.000  C 
  C41      1.0000 0.16683  0.75636  0.89344  Biso   1.000  C 
  C42      1.0000 0.14591  0.69573  0.72431  Biso   1.000  C 
  C43      1.0000 0.67286  0.18093  0.57569  Biso   1.000  C 
  C44      1.0000 0.71986  0.22373  0.58925  Biso   1.000  C 
  C45      1.0000 0.21240  0.79943  0.91058  Biso   1.000  C 
  C46      1.0000 0.71228  0.70713  0.41015  Biso   1.000  C 
  C47      1.0000 0.22000  0.28265  0.08976  Biso   1.000  C 
  C48      1.0000 0.17303  0.32552  0.07612  Biso   1.000  C 
  C49      1.0000 0.57462  0.08053  0.56508  Biso   1.000  C 
  C50      1.0000 0.07462  0.58052  0.56510  Biso   1.000  C 
  C51      1.0000 0.86288  0.35798  0.64165  Biso   1.000  C 
  C52      1.0000 0.66683  0.25637  0.89341  Biso   1.000  C 
  C53      1.0000 0.64590  0.19574  0.72428  Biso   1.000  C 
  C54      1.0000 0.07475  0.42599  0.06531  Biso   1.000  C 
  C55      1.0000 0.21986  0.72374  0.58925  Biso   1.000  C 
  C56      1.0000 0.71241  0.29943  0.91058  Biso   1.000  C 
  C57      1.0000 0.17286  0.68093  0.57570  Biso   1.000  C 
  C58      1.0000 0.59776  0.85713  0.20936  Biso   1.000  C 
  C59      1.0000 0.38607  0.07984  0.28692  Biso   1.000  C 
  C60      1.0000 0.89712  0.66032  0.01786  Biso   1.000  C 
  C61      1.0000 0.64593  0.81079  0.22415  Biso   1.000  C 
  C62      1.0000 0.89690  0.34611  0.51652  Biso   1.000  C 
  C63      1.0000 0.66670  0.75019  0.39284  Biso   1.000  C 
  C64      1.0000 0.86299  0.64841  0.14239  Biso   1.000  C 
  H1       1.0000 0.06607  0.70619  0.96915  Biso   1.000  H 
  H2       1.0000 0.14629  0.23809  0.51146  Biso   1.000  H 
  H3       1.0000 0.22752  0.16149  0.54131  Biso   1.000  H 
  H4       1.0000 0.89471  0.30081  0.38297  Biso   1.000  H 
  H5       1.0000 0.64628  0.73809  0.51149  Biso   1.000  H 
  H6       1.0000 0.56582  0.80017  0.46744  Biso   1.000  H 
  H7       1.0000 0.80233  0.37316  0.90591  Biso   1.000  H 
  H8       1.0000 0.87341  0.54827  0.41368  Biso   1.000  H 
  H9       1.0000 0.08709  0.54907  0.43750  Biso   1.000  H 
  H10      1.0000 0.06582  0.30019  0.46743  Biso   1.000  H 
  H11      1.0000 0.37340  0.04825  0.41363  Biso   1.000  H 
  H12      1.0000 0.31395  0.73938  0.33785  Biso   1.000  H 
  H13      1.0000 0.23253  0.66333  0.30743  Biso   1.000  H 
  H14      1.0000 0.15827  0.37140  0.94471  Biso   1.000  H 
  H15      1.0000 0.72777  0.34508  0.04213  Biso   1.000  H 
  H16      1.0000 0.65827  0.87140  0.94474  Biso   1.000  H 
  H17      1.0000 0.64652  0.26848  0.01251  Biso   1.000  H 
  H18      1.0000 0.58734  0.95748  0.93837  Biso   1.000  H 
  H19      1.0000 0.72752  0.66149  0.54135  Biso   1.000  H 
  H20      1.0000 0.37355  0.95811  0.91419  Biso   1.000  H 
  H21      1.0000 0.73253  0.16333  0.30741  Biso   1.000  H 
  H22      1.0000 0.23285  0.34279  0.80857  Biso   1.000  H 
  H23      1.0000 0.39506  0.20566  0.88490  Biso   1.000  H 
  H24      1.0000 0.73286  0.84279  0.80861  Biso   1.000  H 
  H25      1.0000 0.14652  0.76847  0.01255  Biso   1.000  H 
  H26      1.0000 0.81425  0.76675  0.83918  Biso   1.000  H 
  H27      1.0000 0.08734  0.45749  0.93834  Biso   1.000  H 
  H28      1.0000 0.89505  0.70567  0.88492  Biso   1.000  H 
  H29      1.0000 0.15799  0.63500  0.44395  Biso   1.000  H 
  H30      1.0000 0.80224  0.63334  0.40582  Biso   1.000  H 
  H31      1.0000 0.87354  0.45810  0.91418  Biso   1.000  H 
  H32      1.0000 0.31424  0.26674  0.83912  Biso   1.000  H 
  H33      1.0000 0.58709  0.04908  0.43747  Biso   1.000  H 
  H34      1.0000 0.65799  0.13500  0.44393  Biso   1.000  H 
  H35      1.0000 0.39471  0.80084  0.38294  Biso   1.000  H 
  H36      1.0000 0.56607  0.20619  0.96914  Biso   1.000  H 
  H37      1.0000 0.81396  0.23937  0.33785  Biso   1.000  H 
  H38      1.0000 0.22777  0.84509  0.04213  Biso   1.000  H 
  H39      1.0000 0.30232  0.87320  0.90588  Biso   1.000  H 
  H40      1.0000 0.30224  0.13333  0.40577  Biso   1.000  H 
  N1       1.0000 0.43000  0.05341  0.25004  Biso   1.000  N 
  N2       1.0000 0.03092  0.55355  0.60329  Biso   1.000  N 
  N3       1.0000 0.43704  0.90277  0.58360  Biso   1.000  N 
  N4       1.0000 0.02390  0.60361  0.76961  Biso   1.000  N 
  N5       1.0000 0.53092  0.05354  0.60329  Biso   1.000  N 
  N6       1.0000 0.52382  0.90271  0.26872  Biso   1.000  N 
  N7       1.0000 0.03098  0.45286  0.10316  Biso   1.000  N 
  N8       1.0000 0.93703  0.40277  0.58359  Biso   1.000  N 
  N9       1.0000 0.43719  0.10361  0.08462  Biso   1.000  N 
  N10      1.0000 0.42999  0.95291  0.74982  Biso   1.000  N 
  N11      1.0000 0.02382  0.40272  0.26870  Biso   1.000  N 
  N12      1.0000 0.92999  0.45292  0.74980  Biso   1.000  N 
  N13      1.0000 0.93719  0.60361  0.08462  Biso   1.000  N 
  N14      1.0000 0.52390  0.10361  0.76962  Biso   1.000  N 
  N15      1.0000 0.93000  0.55342  0.25005  Biso   1.000  N 
  N16      1.0000 0.53098  0.95285  0.10318  Biso   1.000  N 
  Zn1      1.0000 0.48057  0.03964  0.92694  Biso   1.000  Zn
  Zn2      1.0000 0.98056  0.53964  0.92692  Biso   1.000  Zn
  Zn3      1.0000 0.48046  0.96666  0.42662  Biso   1.000  Zn
  Zn4      1.0000 0.98045  0.46666  0.42661  Biso   1.000  Zn
