data_image0
_cell_length_a       22.8413
_cell_length_b       21.0895
_cell_length_c       7.17431
_cell_angle_alpha    90.0036
_cell_angle_beta     97.0629
_cell_angle_gamma    89.9981

_symmetry_space_group_name_H-M    "P 1"
_symmetry_int_tables_number       1

loop_
  _symmetry_equiv_pos_as_xyz
  'x, y, z'

loop_
  _atom_site_label
  _atom_site_occupancy
  _atom_site_fract_x
  _atom_site_fract_y
  _atom_site_fract_z
  _atom_site_thermal_displace_type
  _atom_site_B_iso_or_equiv
  _atom_site_type_symbol
  C1       1.0000 0.60023  0.12934  0.71451  Biso   1.000  C 
  C2       1.0000 0.20050  0.24426  0.40640  Biso   1.000  C 
  C3       1.0000 0.81403  0.67740  0.12348  Biso   1.000  C 
  C4       1.0000 0.57216  0.90424  0.35982  Biso   1.000  C 
  C5       1.0000 0.36066  0.87717  0.63653  Biso   1.000  C 
  C6       1.0000 0.57285  0.09875  0.55263  Biso   1.000  C 
  C7       1.0000 0.38844  0.90428  0.49135  Biso   1.000  C 
  C8       1.0000 0.15783  0.71609  0.89155  Biso   1.000  C 
  C9       1.0000 0.14657  0.67749  0.72786  Biso   1.000  C 
  C10      1.0000 0.68053  0.18709  0.58237  Biso   1.000  C 
  C11      1.0000 0.72504  0.23396  0.59267  Biso   1.000  C 
  C12      1.0000 0.20108  0.76186  0.90644  Biso   1.000  C 
  C13      1.0000 0.70050  0.74426  0.40640  Biso   1.000  C 
  C14      1.0000 0.22467  0.27237  0.09305  Biso   1.000  C 
  C15      1.0000 0.18023  0.31930  0.08288  Biso   1.000  C 
  C16      1.0000 0.86066  0.37717  0.63653  Biso   1.000  C 
  C17      1.0000 0.07285  0.59875  0.55263  Biso   1.000  C 
  C18      1.0000 0.65731  0.79009  0.39165  Biso   1.000  C 
  C19      1.0000 0.88844  0.40428  0.49134  Biso   1.000  C 
  C20      1.0000 0.64619  0.82883  0.22820  Biso   1.000  C 
  C21      1.0000 0.88824  0.60222  0.99147  Biso   1.000  C 
  C22      1.0000 0.38788  0.09868  0.29853  Biso   1.000  C 
  C23      1.0000 0.59998  0.87710  0.21478  Biso   1.000  C 
  C24      1.0000 0.86039  0.62923  0.13672  Biso   1.000  C 
  C25      1.0000 0.70108  0.26186  0.90644  Biso   1.000  C 
  C26      1.0000 0.22504  0.73396  0.59267  Biso   1.000  C 
  C27      1.0000 0.18053  0.68709  0.58236  Biso   1.000  C 
  C28      1.0000 0.07270  0.40771  0.05282  Biso   1.000  C 
  C29      1.0000 0.64657  0.17749  0.72787  Biso   1.000  C 
  C30      1.0000 0.65783  0.21609  0.89156  Biso   1.000  C 
  C31      1.0000 0.80314  0.29033  0.45959  Biso   1.000  C 
  C32      1.0000 0.36039  0.12923  0.13672  Biso   1.000  C 
  C33      1.0000 0.88805  0.40774  0.79841  Biso   1.000  C 
  C34      1.0000 0.25994  0.74450  0.44470  Biso   1.000  C 
  C35      1.0000 0.38805  0.90774  0.79841  Biso   1.000  C 
  C36      1.0000 0.30285  0.21613  0.96004  Biso   1.000  C 
  C37      1.0000 0.57270  0.90771  0.05282  Biso   1.000  C 
  C38      1.0000 0.38824  0.10222  0.99147  Biso   1.000  C 
  C39      1.0000 0.07216  0.40424  0.35981  Biso   1.000  C 
  C40      1.0000 0.09998  0.37710  0.21478  Biso   1.000  C 
  C41      1.0000 0.31403  0.17740  0.12348  Biso   1.000  C 
  C42      1.0000 0.15731  0.29010  0.39165  Biso   1.000  C 
  C43      1.0000 0.68023  0.81930  0.08287  Biso   1.000  C 
  C44      1.0000 0.72467  0.77237  0.09305  Biso   1.000  C 
  C45      1.0000 0.75963  0.76194  0.94523  Biso   1.000  C 
  C46      1.0000 0.23548  0.23382  0.25855  Biso   1.000  C 
  C47      1.0000 0.27994  0.18689  0.26876  Biso   1.000  C 
  C48      1.0000 0.10023  0.62934  0.71451  Biso   1.000  C 
  C49      1.0000 0.88788  0.59868  0.29852  Biso   1.000  C 
  C50      1.0000 0.80285  0.71613  0.96003  Biso   1.000  C 
  C51      1.0000 0.14619  0.32883  0.22820  Biso   1.000  C 
  C52      1.0000 0.57231  0.10237  0.85962  Biso   1.000  C 
  C53      1.0000 0.73598  0.27236  0.75847  Biso   1.000  C 
  C54      1.0000 0.78046  0.31926  0.76879  Biso   1.000  C 
  C55      1.0000 0.73548  0.73382  0.25855  Biso   1.000  C 
  C56      1.0000 0.28046  0.81926  0.76879  Biso   1.000  C 
  C57      1.0000 0.81439  0.32893  0.62328  Biso   1.000  C 
  C58      1.0000 0.75994  0.24450  0.44470  Biso   1.000  C 
  C59      1.0000 0.31440  0.82893  0.62328  Biso   1.000  C 
  C60      1.0000 0.30314  0.79033  0.45959  Biso   1.000  C 
  C61      1.0000 0.07231  0.60237  0.85962  Biso   1.000  C 
  C62      1.0000 0.25963  0.26194  0.94524  Biso   1.000  C 
  C63      1.0000 0.77994  0.68689  0.26876  Biso   1.000  C 
  C64      1.0000 0.23599  0.77236  0.75847  Biso   1.000  C 
  H1       1.0000 0.75199  0.79129  0.81919  Biso   1.000  H 
  H2       1.0000 0.13095  0.70979  0.00580  Biso   1.000  H 
  H3       1.0000 0.82975  0.70988  0.84579  Biso   1.000  H 
  H4       1.0000 0.07951  0.40127  0.90690  Biso   1.000  H 
  H5       1.0000 0.88130  0.40132  0.94440  Biso   1.000  H 
  H6       1.0000 0.88083  0.61075  0.84117  Biso   1.000  H 
  H7       1.0000 0.17371  0.65748  0.45664  Biso   1.000  H 
  H8       1.0000 0.78661  0.65718  0.39429  Biso   1.000  H 
  H9       1.0000 0.28725  0.84885  0.89455  Biso   1.000  H 
  H10      1.0000 0.32975  0.20989  0.84579  Biso   1.000  H 
  H11      1.0000 0.57966  0.10511  0.40667  Biso   1.000  H 
  H12      1.0000 0.67371  0.15748  0.45664  Biso   1.000  H 
  H13      1.0000 0.38104  0.89578  0.34104  Biso   1.000  H 
  H14      1.0000 0.57962  0.11094  0.00990  Biso   1.000  H 
  H15      1.0000 0.75225  0.21525  0.31847  Biso   1.000  H 
  H16      1.0000 0.82999  0.29668  0.34528  Biso   1.000  H 
  H17      1.0000 0.20880  0.79111  0.03267  Biso   1.000  H 
  H18      1.0000 0.28661  0.15718  0.39429  Biso   1.000  H 
  H19      1.0000 0.25199  0.29129  0.81919  Biso   1.000  H 
  H20      1.0000 0.38083  0.11075  0.84117  Biso   1.000  H 
  H21      1.0000 0.38130  0.90132  0.94440  Biso   1.000  H 
  H22      1.0000 0.57951  0.90127  0.90690  Biso   1.000  H 
  H23      1.0000 0.07962  0.61094  0.00990  Biso   1.000  H 
  H24      1.0000 0.20813  0.21494  0.53247  Biso   1.000  H 
  H25      1.0000 0.88104  0.39578  0.34104  Biso   1.000  H 
  H26      1.0000 0.63037  0.79635  0.50578  Biso   1.000  H 
  H27      1.0000 0.57947  0.89573  0.51012  Biso   1.000  H 
  H28      1.0000 0.78725  0.34885  0.89455  Biso   1.000  H 
  H29      1.0000 0.13037  0.29636  0.50579  Biso   1.000  H 
  H30      1.0000 0.88112  0.60497  0.44456  Biso   1.000  H 
  H31      1.0000 0.70813  0.71494  0.53247  Biso   1.000  H 
  H32      1.0000 0.07947  0.39573  0.51012  Biso   1.000  H 
  H33      1.0000 0.38112  0.10497  0.44456  Biso   1.000  H 
  H34      1.0000 0.32999  0.79668  0.34528  Biso   1.000  H 
  H35      1.0000 0.25225  0.71525  0.31846  Biso   1.000  H 
  H36      1.0000 0.17353  0.34904  0.95744  Biso   1.000  H 
  H37      1.0000 0.07966  0.60511  0.40667  Biso   1.000  H 
  H38      1.0000 0.70880  0.29111  0.03267  Biso   1.000  H 
  H39      1.0000 0.67353  0.84904  0.95744  Biso   1.000  H 
  H40      1.0000 0.63094  0.20979  0.00580  Biso   1.000  H 
  N1       1.0000 0.42867  0.05924  0.06231  Biso   1.000  N 
  N2       1.0000 0.92846  0.55718  0.25206  Biso   1.000  N 
  N3       1.0000 0.53194  0.05936  0.78859  Biso   1.000  N 
  N4       1.0000 0.92867  0.55924  0.06231  Biso   1.000  N 
  N5       1.0000 0.92853  0.44937  0.75205  Biso   1.000  N 
  N6       1.0000 0.03192  0.44736  0.28866  Biso   1.000  N 
  N7       1.0000 0.42854  0.94937  0.75205  Biso   1.000  N 
  N8       1.0000 0.53222  0.94939  0.09896  Biso   1.000  N 
  N9       1.0000 0.92875  0.44735  0.56231  Biso   1.000  N 
  N10      1.0000 0.53192  0.94736  0.28866  Biso   1.000  N 
  N11      1.0000 0.42846  0.05718  0.25206  Biso   1.000  N 
  N12      1.0000 0.03226  0.55724  0.59889  Biso   1.000  N 
  N13      1.0000 0.42875  0.94735  0.56231  Biso   1.000  N 
  N14      1.0000 0.03222  0.44939  0.09895  Biso   1.000  N 
  N15      1.0000 0.53226  0.05724  0.59890  Biso   1.000  N 
  N16      1.0000 0.03194  0.55936  0.78859  Biso   1.000  N 
  Zn1      1.0000 0.98039  0.50497  0.92530  Biso   1.000  Zn
  Zn2      1.0000 0.48039  0.00166  0.42543  Biso   1.000  Zn
  Zn3      1.0000 0.48039  0.00497  0.92530  Biso   1.000  Zn
  Zn4      1.0000 0.98038  0.50167  0.42542  Biso   1.000  Zn
