data_image0
_cell_length_a       29.3621
_cell_length_b       7.38299
_cell_length_c       6.88822
_cell_angle_alpha    90.0511
_cell_angle_beta     94.3695
_cell_angle_gamma    89.9397

_symmetry_space_group_name_H-M    "P 1"
_symmetry_int_tables_number       1

loop_
  _symmetry_equiv_pos_as_xyz
  'x, y, z'

loop_
  _atom_site_label
  _atom_site_occupancy
  _atom_site_fract_x
  _atom_site_fract_y
  _atom_site_fract_z
  _atom_site_thermal_displace_type
  _atom_site_B_iso_or_equiv
  _atom_site_type_symbol
  C1       1.0000 0.59449  0.22976  0.68229  Biso   1.000  C 
  C2       1.0000 0.56144  0.26372  0.81563  Biso   1.000  C 
  C3       1.0000 0.24879  0.34905  0.94283  Biso   1.000  C 
  C4       1.0000 0.36617  0.23074  0.16952  Biso   1.000  C 
  C5       1.0000 0.21189  0.15786  0.40860  Biso   1.000  C 
  C6       1.0000 0.81671  0.76064  0.14802  Biso   1.000  C 
  C7       1.0000 0.39912  0.74299  0.53550  Biso   1.000  C 
  C8       1.0000 0.16504  0.83461  0.87910  Biso   1.000  C 
  C9       1.0000 0.14389  0.76001  0.70362  Biso   1.000  C 
  C10      1.0000 0.67179  0.20338  0.56058  Biso   1.000  C 
  C11      1.0000 0.71988  0.21628  0.58643  Biso   1.000  C 
  C12      1.0000 0.21180  0.84826  0.90884  Biso   1.000  C 
  C13      1.0000 0.71188  0.65769  0.40865  Biso   1.000  C 
  C14      1.0000 0.21993  0.29023  0.08671  Biso   1.000  C 
  C15      1.0000 0.17183  0.30304  0.06071  Biso   1.000  C 
  C16      1.0000 0.56150  0.74262  0.31543  Biso   1.000  C 
  C17      1.0000 0.07012  0.63090  0.53331  Biso   1.000  C 
  C18      1.0000 0.36608  0.77672  0.66891  Biso   1.000  C 
  C19      1.0000 0.17178  0.70346  0.56055  Biso   1.000  C 
  C20      1.0000 0.86609  0.27642  0.66882  Biso   1.000  C 
  C21      1.0000 0.64392  0.25995  0.70369  Biso   1.000  C 
  C22      1.0000 0.21987  0.71646  0.58641  Biso   1.000  C 
  C23      1.0000 0.71184  0.34804  0.90890  Biso   1.000  C 
  C24      1.0000 0.07006  0.37413  0.03260  Biso   1.000  C 
  C25      1.0000 0.59450  0.77600  0.18189  Biso   1.000  C 
  C26      1.0000 0.39055  0.13204  0.31838  Biso   1.000  C 
  C27      1.0000 0.64395  0.74592  0.20349  Biso   1.000  C 
  C28      1.0000 0.66512  0.67109  0.37875  Biso   1.000  C 
  C29      1.0000 0.57012  0.13100  0.53338  Biso   1.000  C 
  C30      1.0000 0.89918  0.76417  0.03611  Biso   1.000  C 
  C31      1.0000 0.79551  0.17137  0.47198  Biso   1.000  C 
  C32      1.0000 0.24068  0.78985  0.76463  Biso   1.000  C 
  C33      1.0000 0.86616  0.73050  0.16950  Biso   1.000  C 
  C34      1.0000 0.24876  0.65796  0.44226  Biso   1.000  C 
  C35      1.0000 0.66508  0.33447  0.87918  Biso   1.000  C 
  C36      1.0000 0.89913  0.24268  0.53541  Biso   1.000  C 
  C37      1.0000 0.89045  0.37510  0.81783  Biso   1.000  C 
  C38      1.0000 0.39044  0.87535  0.81795  Biso   1.000  C 
  C39      1.0000 0.29555  0.33564  0.97269  Biso   1.000  C 
  C40      1.0000 0.09451  0.27600  0.18178  Biso   1.000  C 
  C41      1.0000 0.31673  0.26089  0.14799  Biso   1.000  C 
  C42      1.0000 0.16513  0.17119  0.37867  Biso   1.000  C 
  C43      1.0000 0.67183  0.80290  0.06078  Biso   1.000  C 
  C44      1.0000 0.71992  0.79004  0.08676  Biso   1.000  C 
  C45      1.0000 0.74878  0.84882  0.94287  Biso   1.000  C 
  C46      1.0000 0.24076  0.21668  0.26473  Biso   1.000  C 
  C47      1.0000 0.28885  0.20395  0.29075  Biso   1.000  C 
  C48      1.0000 0.09447  0.72974  0.68220  Biso   1.000  C 
  C49      1.0000 0.57005  0.87414  0.03272  Biso   1.000  C 
  C50      1.0000 0.79554  0.83539  0.97274  Biso   1.000  C 
  C51      1.0000 0.39920  0.26446  0.03622  Biso   1.000  C 
  C52      1.0000 0.29551  0.67166  0.47203  Biso   1.000  C 
  C53      1.0000 0.89056  0.63188  0.31837  Biso   1.000  C 
  C54      1.0000 0.78884  0.70370  0.29078  Biso   1.000  C 
  C55      1.0000 0.31666  0.74642  0.64745  Biso   1.000  C 
  C56      1.0000 0.74876  0.15773  0.44225  Biso   1.000  C 
  C57      1.0000 0.06141  0.76370  0.81549  Biso   1.000  C 
  C58      1.0000 0.28877  0.80290  0.79052  Biso   1.000  C 
  C59      1.0000 0.74075  0.71649  0.26479  Biso   1.000  C 
  C60      1.0000 0.74070  0.28960  0.76467  Biso   1.000  C 
  C61      1.0000 0.14396  0.24599  0.20340  Biso   1.000  C 
  C62      1.0000 0.81667  0.24606  0.64741  Biso   1.000  C 
  C63      1.0000 0.06150  0.24254  0.31528  Biso   1.000  C 
  C64      1.0000 0.78879  0.30252  0.79053  Biso   1.000  C 
  H1       1.0000 0.22723  0.90436  0.04483  Biso   1.000  H 
  H2       1.0000 0.08177  0.42919  0.89918  Biso   1.000  H 
  H3       1.0000 0.73333  0.10149  0.30633  Biso   1.000  H 
  H4       1.0000 0.89595  0.83408  0.89699  Biso   1.000  H 
  H5       1.0000 0.39599  0.33444  0.89713  Biso   1.000  H 
  H6       1.0000 0.15695  0.64468  0.42467  Biso   1.000  H 
  H7       1.0000 0.14392  0.88041  0.99311  Biso   1.000  H 
  H8       1.0000 0.80370  0.64477  0.42650  Biso   1.000  H 
  H9       1.0000 0.81663  0.12540  0.35802  Biso   1.000  H 
  H10      1.0000 0.31667  0.38184  0.85900  Biso   1.000  H 
  H11      1.0000 0.58190  0.07528  0.40025  Biso   1.000  H 
  H12      1.0000 0.65695  0.14468  0.42469  Biso   1.000  H 
  H13      1.0000 0.39592  0.67309  0.39625  Biso   1.000  H 
  H14      1.0000 0.56462  0.33395  0.95469  Biso   1.000  H 
  H15      1.0000 0.23334  0.40535  0.80704  Biso   1.000  H 
  H16      1.0000 0.30359  0.86169  0.92643  Biso   1.000  H 
  H17      1.0000 0.87869  0.43063  0.95109  Biso   1.000  H 
  H18      1.0000 0.81665  0.88160  0.85904  Biso   1.000  H 
  H19      1.0000 0.73333  0.90509  0.80708  Biso   1.000  H 
  H20      1.0000 0.30371  0.14506  0.42648  Biso   1.000  H 
  H21      1.0000 0.58176  0.92915  0.89926  Biso   1.000  H 
  H22      1.0000 0.22735  0.10162  0.54443  Biso   1.000  H 
  H23      1.0000 0.64397  0.38026  0.99324  Biso   1.000  H 
  H24      1.0000 0.72728  0.40407  0.04491  Biso   1.000  H 
  H25      1.0000 0.56476  0.67320  0.45482  Biso   1.000  H 
  H26      1.0000 0.37868  0.93086  0.95122  Biso   1.000  H 
  H27      1.0000 0.80363  0.36123  0.92645  Biso   1.000  H 
  H28      1.0000 0.14403  0.12494  0.49238  Biso   1.000  H 
  H29      1.0000 0.89594  0.17276  0.39618  Biso   1.000  H 
  H30      1.0000 0.87882  0.57648  0.45156  Biso   1.000  H 
  H31      1.0000 0.06458  0.83396  0.95453  Biso   1.000  H 
  H32      1.0000 0.06478  0.17309  0.45465  Biso   1.000  H 
  H33      1.0000 0.37878  0.07658  0.45150  Biso   1.000  H 
  H34      1.0000 0.31664  0.62568  0.35811  Biso   1.000  H 
  H35      1.0000 0.23334  0.60166  0.30636  Biso   1.000  H 
  H36      1.0000 0.15699  0.36218  0.92510  Biso   1.000  H 
  H37      1.0000 0.65698  0.86203  0.92516  Biso   1.000  H 
  H38      1.0000 0.72733  0.60144  0.54447  Biso   1.000  H 
  H39      1.0000 0.08190  0.57516  0.40019  Biso   1.000  H 
  H40      1.0000 0.64401  0.62489  0.49248  Biso   1.000  H 
  N1       1.0000 0.52116  0.18666  0.75272  Biso   1.000  N 
  N2       1.0000 0.93368  0.40246  0.77304  Biso   1.000  N 
  N3       1.0000 0.43951  0.18721  0.09903  Biso   1.000  N 
  N4       1.0000 0.02117  0.31938  0.25231  Biso   1.000  N 
  N5       1.0000 0.93380  0.60438  0.27347  Biso   1.000  N 
  N6       1.0000 0.93949  0.68698  0.09888  Biso   1.000  N 
  N7       1.0000 0.52682  0.90166  0.07761  Biso   1.000  N 
  N8       1.0000 0.43368  0.90268  0.77319  Biso   1.000  N 
  N9       1.0000 0.02682  0.40158  0.07747  Biso   1.000  N 
  N10      1.0000 0.02114  0.68656  0.75259  Biso   1.000  N 
  N11      1.0000 0.43940  0.82000  0.59851  Biso   1.000  N 
  N12      1.0000 0.52689  0.10374  0.57818  Biso   1.000  N 
  N13      1.0000 0.43379  0.10454  0.27357  Biso   1.000  N 
  N14      1.0000 0.93941  0.31976  0.59837  Biso   1.000  N 
  N15      1.0000 0.02689  0.60360  0.57809  Biso   1.000  N 
  N16      1.0000 0.52117  0.81951  0.25247  Biso   1.000  N 
  Zn1      1.0000 0.98030  0.55704  0.92541  Biso   1.000  Zn
  Zn2      1.0000 0.48032  0.94930  0.42564  Biso   1.000  Zn
  Zn3      1.0000 0.48031  0.05722  0.92560  Biso   1.000  Zn
  Zn4      1.0000 0.98032  0.44911  0.42550  Biso   1.000  Zn
