data_image0
_cell_length_a       29.2412
_cell_length_b       7.96731
_cell_length_c       7.11287
_cell_angle_alpha    89.9373
_cell_angle_beta     92.9428
_cell_angle_gamma    90.0374

_symmetry_space_group_name_H-M    "P 1"
_symmetry_int_tables_number       1

loop_
  _symmetry_equiv_pos_as_xyz
  'x, y, z'

loop_
  _atom_site_label
  _atom_site_occupancy
  _atom_site_fract_x
  _atom_site_fract_y
  _atom_site_fract_z
  _atom_site_thermal_displace_type
  _atom_site_B_iso_or_equiv
  _atom_site_type_symbol
  C1       1.0000 0.59411  0.21784  0.67800  Biso   1.000  C 
  C2       1.0000 0.89907  0.27107  0.53578  Biso   1.000  C 
  C3       1.0000 0.89087  0.37235  0.82082  Biso   1.000  C 
  C4       1.0000 0.39087  0.87241  0.82083  Biso   1.000  C 
  C5       1.0000 0.29945  0.37312  0.02218  Biso   1.000  C 
  C6       1.0000 0.56980  0.87291  0.03054  Biso   1.000  C 
  C7       1.0000 0.09415  0.28925  0.17851  Biso   1.000  C 
  C8       1.0000 0.31744  0.25468  0.15706  Biso   1.000  C 
  C9       1.0000 0.16120  0.13345  0.32943  Biso   1.000  C 
  C10      1.0000 0.67365  0.83817  0.08530  Biso   1.000  C 
  C11      1.0000 0.72149  0.81208  0.10650  Biso   1.000  C 
  C12      1.0000 0.75306  0.90036  0.99741  Biso   1.000  C 
  C13      1.0000 0.23916  0.19449  0.24505  Biso   1.000  C 
  C14      1.0000 0.28700  0.16829  0.26617  Biso   1.000  C 
  C15      1.0000 0.09411  0.71780  0.67800  Biso   1.000  C 
  C16      1.0000 0.39903  0.23471  0.03528  Biso   1.000  C 
  C17      1.0000 0.79945  0.87307  0.02211  Biso   1.000  C 
  C18      1.0000 0.06156  0.27160  0.31583  Biso   1.000  C 
  C19      1.0000 0.81742  0.25123  0.65739  Biso   1.000  C 
  C20      1.0000 0.14320  0.25171  0.19440  Biso   1.000  C 
  C21      1.0000 0.73917  0.31177  0.74515  Biso   1.000  C 
  C22      1.0000 0.73916  0.69448  0.24500  Biso   1.000  C 
  C23      1.0000 0.28703  0.83746  0.76661  Biso   1.000  C 
  C24      1.0000 0.78703  0.33744  0.76656  Biso   1.000  C 
  C25      1.0000 0.75294  0.10655  0.49728  Biso   1.000  C 
  C26      1.0000 0.31743  0.75126  0.65743  Biso   1.000  C 
  C27      1.0000 0.06151  0.73535  0.81523  Biso   1.000  C 
  C28      1.0000 0.78700  0.66825  0.26610  Biso   1.000  C 
  C29      1.0000 0.89082  0.63305  0.32038  Biso   1.000  C 
  C30      1.0000 0.29936  0.63346  0.52221  Biso   1.000  C 
  C31      1.0000 0.25295  0.60657  0.49732  Biso   1.000  C 
  C32      1.0000 0.66123  0.37320  0.82911  Biso   1.000  C 
  C33      1.0000 0.23917  0.81177  0.74520  Biso   1.000  C 
  C34      1.0000 0.79936  0.13343  0.52217  Biso   1.000  C 
  C35      1.0000 0.56151  0.23541  0.81524  Biso   1.000  C 
  C36      1.0000 0.25306  0.40039  0.99747  Biso   1.000  C 
  C37      1.0000 0.36647  0.21693  0.17270  Biso   1.000  C 
  C38      1.0000 0.20760  0.10624  0.35418  Biso   1.000  C 
  C39      1.0000 0.81744  0.75463  0.15698  Biso   1.000  C 
  C40      1.0000 0.39907  0.77111  0.53581  Biso   1.000  C 
  C41      1.0000 0.16122  0.87316  0.82915  Biso   1.000  C 
  C42      1.0000 0.14317  0.75530  0.69396  Biso   1.000  C 
  C43      1.0000 0.67357  0.16901  0.58493  Biso   1.000  C 
  C44      1.0000 0.72143  0.19475  0.60638  Biso   1.000  C 
  C45      1.0000 0.20765  0.89994  0.85426  Biso   1.000  C 
  C46      1.0000 0.70760  0.60624  0.35414  Biso   1.000  C 
  C47      1.0000 0.22149  0.31208  0.10654  Biso   1.000  C 
  C48      1.0000 0.17365  0.33815  0.08534  Biso   1.000  C 
  C49      1.0000 0.56156  0.77164  0.31582  Biso   1.000  C 
  C50      1.0000 0.06978  0.63402  0.53025  Biso   1.000  C 
  C51      1.0000 0.36649  0.78873  0.67316  Biso   1.000  C 
  C52      1.0000 0.17358  0.66900  0.58495  Biso   1.000  C 
  C53      1.0000 0.86649  0.28869  0.67314  Biso   1.000  C 
  C54      1.0000 0.64317  0.25534  0.69395  Biso   1.000  C 
  C55      1.0000 0.22143  0.69475  0.60642  Biso   1.000  C 
  C56      1.0000 0.70765  0.39997  0.85420  Biso   1.000  C 
  C57      1.0000 0.06980  0.37286  0.03055  Biso   1.000  C 
  C58      1.0000 0.59415  0.78930  0.17849  Biso   1.000  C 
  C59      1.0000 0.39083  0.13312  0.32045  Biso   1.000  C 
  C60      1.0000 0.64320  0.75173  0.19438  Biso   1.000  C 
  C61      1.0000 0.66120  0.63347  0.32940  Biso   1.000  C 
  C62      1.0000 0.86647  0.71687  0.17262  Biso   1.000  C 
  C63      1.0000 0.56977  0.13407  0.53027  Biso   1.000  C 
  C64      1.0000 0.89903  0.73466  0.03521  Biso   1.000  C 
  H1       1.0000 0.72074  0.49021  0.95875  Biso   1.000  H 
  H2       1.0000 0.56537  0.71824  0.45636  Biso   1.000  H 
  H3       1.0000 0.37948  0.91045  0.95730  Biso   1.000  H 
  H4       1.0000 0.79970  0.43097  0.86861  Biso   1.000  H 
  H5       1.0000 0.06530  0.78869  0.95567  Biso   1.000  H 
  H6       1.0000 0.13784  0.06288  0.41454  Biso   1.000  H 
  H7       1.0000 0.89523  0.21769  0.39537  Biso   1.000  H 
  H8       1.0000 0.87942  0.59482  0.45689  Biso   1.000  H 
  H9       1.0000 0.08121  0.59587  0.39390  Biso   1.000  H 
  H10      1.0000 0.06537  0.21821  0.45637  Biso   1.000  H 
  H11      1.0000 0.37943  0.09488  0.45696  Biso   1.000  H 
  H12      1.0000 0.32269  0.56303  0.43706  Biso   1.000  H 
  H13      1.0000 0.23984  0.51629  0.39285  Biso   1.000  H 
  H14      1.0000 0.16104  0.43208  0.98344  Biso   1.000  H 
  H15      1.0000 0.58122  0.91096  0.89402  Biso   1.000  H 
  H16      1.0000 0.66104  0.93210  0.98342  Biso   1.000  H 
  H17      1.0000 0.72065  0.51555  0.45840  Biso   1.000  H 
  H18      1.0000 0.63783  0.56290  0.41451  Biso   1.000  H 
  H19      1.0000 0.22065  0.01555  0.45845  Biso   1.000  H 
  H20      1.0000 0.63789  0.44367  0.91419  Biso   1.000  H 
  H21      1.0000 0.29960  0.07420  0.36788  Biso   1.000  H 
  H22      1.0000 0.82283  0.94363  0.93707  Biso   1.000  H 
  H23      1.0000 0.22074  0.99017  0.95883  Biso   1.000  H 
  H24      1.0000 0.73983  0.01626  0.39283  Biso   1.000  H 
  H25      1.0000 0.89520  0.78814  0.89472  Biso   1.000  H 
  H26      1.0000 0.39520  0.28820  0.89479  Biso   1.000  H 
  H27      1.0000 0.16093  0.57534  0.48298  Biso   1.000  H 
  H28      1.0000 0.13788  0.94361  0.91424  Biso   1.000  H 
  H29      1.0000 0.08122  0.41091  0.89403  Biso   1.000  H 
  H30      1.0000 0.79960  0.57415  0.36779  Biso   1.000  H 
  H31      1.0000 0.74002  0.99108  0.89318  Biso   1.000  H 
  H32      1.0000 0.32283  0.44370  0.93716  Biso   1.000  H 
  H33      1.0000 0.58121  0.09590  0.39391  Biso   1.000  H 
  H34      1.0000 0.66092  0.07534  0.48298  Biso   1.000  H 
  H35      1.0000 0.39523  0.71771  0.39540  Biso   1.000  H 
  H36      1.0000 0.56531  0.28874  0.95568  Biso   1.000  H 
  H37      1.0000 0.82268  0.06298  0.43702  Biso   1.000  H 
  H38      1.0000 0.24002  0.49110  0.89324  Biso   1.000  H 
  H39      1.0000 0.29970  0.93099  0.86866  Biso   1.000  H 
  H40      1.0000 0.87948  0.41038  0.95729  Biso   1.000  H 
  N1       1.0000 0.02678  0.40578  0.07872  Biso   1.000  N 
  N2       1.0000 0.02676  0.60096  0.57847  Biso   1.000  N 
  N3       1.0000 0.93915  0.34271  0.59556  Biso   1.000  N 
  N4       1.0000 0.43383  0.10030  0.27208  Biso   1.000  N 
  N5       1.0000 0.52676  0.10102  0.57850  Biso   1.000  N 
  N6       1.0000 0.43915  0.84275  0.59559  Biso   1.000  N 
  N7       1.0000 0.02144  0.66368  0.75528  Biso   1.000  N 
  N8       1.0000 0.52149  0.84316  0.25576  Biso   1.000  N 
  N9       1.0000 0.43388  0.90542  0.77245  Biso   1.000  N 
  N10      1.0000 0.93911  0.66310  0.09510  Biso   1.000  N 
  N11      1.0000 0.52144  0.16374  0.75531  Biso   1.000  N 
  N12      1.0000 0.93388  0.40535  0.77244  Biso   1.000  N 
  N13      1.0000 0.43911  0.16315  0.09515  Biso   1.000  N 
  N14      1.0000 0.52678  0.90584  0.07873  Biso   1.000  N 
  N15      1.0000 0.93382  0.60024  0.27203  Biso   1.000  N 
  N16      1.0000 0.02149  0.34310  0.25574  Biso   1.000  N 
  Zn1      1.0000 0.48032  0.96533  0.42552  Biso   1.000  Zn
  Zn2      1.0000 0.48030  0.04126  0.92520  Biso   1.000  Zn
  Zn3      1.0000 0.98030  0.54122  0.92515  Biso   1.000  Zn
  Zn4      1.0000 0.98032  0.46528  0.42549  Biso   1.000  Zn
