data_image0
_cell_length_a       29.2676
_cell_length_b       7.55936
_cell_length_c       7.1113
_cell_angle_alpha    89.9825
_cell_angle_beta     92.2933
_cell_angle_gamma    90.0399

_symmetry_space_group_name_H-M    "P 1"
_symmetry_int_tables_number       1

loop_
  _symmetry_equiv_pos_as_xyz
  'x, y, z'

loop_
  _atom_site_label
  _atom_site_occupancy
  _atom_site_fract_x
  _atom_site_fract_y
  _atom_site_fract_z
  _atom_site_thermal_displace_type
  _atom_site_B_iso_or_equiv
  _atom_site_type_symbol
  C1       1.0000 0.59403  0.22622  0.67546  Biso   1.000  C 
  C2       1.0000 0.89920  0.26002  0.53773  Biso   1.000  C 
  C3       1.0000 0.89090  0.36584  0.82364  Biso   1.000  C 
  C4       1.0000 0.39090  0.86594  0.82375  Biso   1.000  C 
  C5       1.0000 0.29929  0.37949  0.01872  Biso   1.000  C 
  C6       1.0000 0.56980  0.86678  0.02760  Biso   1.000  C 
  C7       1.0000 0.09415  0.28055  0.17557  Biso   1.000  C 
  C8       1.0000 0.31744  0.26126  0.15889  Biso   1.000  C 
  C9       1.0000 0.16145  0.12754  0.33312  Biso   1.000  C 
  C10      1.0000 0.67362  0.83530  0.08080  Biso   1.000  C 
  C11      1.0000 0.72147  0.81212  0.10408  Biso   1.000  C 
  C12      1.0000 0.75290  0.90317  0.99168  Biso   1.000  C 
  C13      1.0000 0.23929  0.19487  0.24784  Biso   1.000  C 
  C14      1.0000 0.28713  0.17162  0.27099  Biso   1.000  C 
  C15      1.0000 0.09403  0.72616  0.67543  Biso   1.000  C 
  C16      1.0000 0.39930  0.24578  0.03781  Biso   1.000  C 
  C17      1.0000 0.79930  0.87944  0.01865  Biso   1.000  C 
  C18      1.0000 0.06136  0.26035  0.31323  Biso   1.000  C 
  C19      1.0000 0.81731  0.24505  0.65868  Biso   1.000  C 
  C20      1.0000 0.14330  0.24559  0.19276  Biso   1.000  C 
  C21      1.0000 0.73920  0.31191  0.74750  Biso   1.000  C 
  C22      1.0000 0.73929  0.69486  0.24778  Biso   1.000  C 
  C23      1.0000 0.28706  0.83484  0.77080  Biso   1.000  C 
  C24      1.0000 0.78707  0.33481  0.77072  Biso   1.000  C 
  C25      1.0000 0.75267  0.10366  0.49138  Biso   1.000  C 
  C26      1.0000 0.31732  0.74509  0.65878  Biso   1.000  C 
  C27      1.0000 0.06124  0.74597  0.81305  Biso   1.000  C 
  C28      1.0000 0.78713  0.67158  0.27090  Biso   1.000  C 
  C29      1.0000 0.89092  0.63957  0.32354  Biso   1.000  C 
  C30      1.0000 0.29909  0.62715  0.51846  Biso   1.000  C 
  C31      1.0000 0.25269  0.60369  0.49144  Biso   1.000  C 
  C32      1.0000 0.66139  0.37953  0.83275  Biso   1.000  C 
  C33      1.0000 0.23920  0.81191  0.74755  Biso   1.000  C 
  C34      1.0000 0.79908  0.12712  0.51838  Biso   1.000  C 
  C35      1.0000 0.56124  0.24605  0.81310  Biso   1.000  C 
  C36      1.0000 0.25290  0.40319  0.99173  Biso   1.000  C 
  C37      1.0000 0.36657  0.22594  0.17572  Biso   1.000  C 
  C38      1.0000 0.20784  0.10389  0.36026  Biso   1.000  C 
  C39      1.0000 0.81744  0.76121  0.15880  Biso   1.000  C 
  C40      1.0000 0.39921  0.76007  0.53787  Biso   1.000  C 
  C41      1.0000 0.16139  0.87949  0.83276  Biso   1.000  C 
  C42      1.0000 0.14318  0.76140  0.69255  Biso   1.000  C 
  C43      1.0000 0.67346  0.17175  0.58057  Biso   1.000  C 
  C44      1.0000 0.72130  0.19478  0.60380  Biso   1.000  C 
  C45      1.0000 0.20780  0.90302  0.85985  Biso   1.000  C 
  C46      1.0000 0.70785  0.60388  0.36021  Biso   1.000  C 
  C47      1.0000 0.22147  0.31212  0.10412  Biso   1.000  C 
  C48      1.0000 0.17362  0.33528  0.08080  Biso   1.000  C 
  C49      1.0000 0.56137  0.76043  0.31328  Biso   1.000  C 
  C50      1.0000 0.06972  0.63977  0.52742  Biso   1.000  C 
  C51      1.0000 0.36649  0.77995  0.67578  Biso   1.000  C 
  C52      1.0000 0.17346  0.67174  0.58058  Biso   1.000  C 
  C53      1.0000 0.86648  0.27989  0.67566  Biso   1.000  C 
  C54      1.0000 0.64318  0.26144  0.69255  Biso   1.000  C 
  C55      1.0000 0.22131  0.69478  0.60384  Biso   1.000  C 
  C56      1.0000 0.70781  0.40305  0.85980  Biso   1.000  C 
  C57      1.0000 0.06980  0.36669  0.02753  Biso   1.000  C 
  C58      1.0000 0.59415  0.78062  0.17562  Biso   1.000  C 
  C59      1.0000 0.39092  0.13963  0.32364  Biso   1.000  C 
  C60      1.0000 0.64330  0.74563  0.19277  Biso   1.000  C 
  C61      1.0000 0.66145  0.62756  0.33311  Biso   1.000  C 
  C62      1.0000 0.86658  0.72586  0.17562  Biso   1.000  C 
  C63      1.0000 0.56972  0.13983  0.52747  Biso   1.000  C 
  C64      1.0000 0.89931  0.74569  0.03770  Biso   1.000  C 
  H1       1.0000 0.72105  0.49306  0.96830  Biso   1.000  H 
  H2       1.0000 0.56510  0.70474  0.45390  Biso   1.000  H 
  H3       1.0000 0.37943  0.90622  0.96057  Biso   1.000  H 
  H4       1.0000 0.79981  0.42896  0.87685  Biso   1.000  H 
  H5       1.0000 0.06493  0.80164  0.95365  Biso   1.000  H 
  H6       1.0000 0.13821  0.05422  0.42057  Biso   1.000  H 
  H7       1.0000 0.89540  0.20455  0.39707  Biso   1.000  H 
  H8       1.0000 0.87942  0.59923  0.46033  Biso   1.000  H 
  H9       1.0000 0.08128  0.59949  0.39073  Biso   1.000  H 
  H10      1.0000 0.06509  0.20469  0.45385  Biso   1.000  H 
  H11      1.0000 0.37941  0.09926  0.46042  Biso   1.000  H 
  H12      1.0000 0.32229  0.55383  0.43098  Biso   1.000  H 
  H13      1.0000 0.23942  0.51379  0.38289  Biso   1.000  H 
  H14      1.0000 0.16096  0.42951  0.97461  Biso   1.000  H 
  H15      1.0000 0.58134  0.90733  0.89093  Biso   1.000  H 
  H16      1.0000 0.66096  0.92955  0.97461  Biso   1.000  H 
  H17      1.0000 0.72105  0.51389  0.46878  Biso   1.000  H 
  H18      1.0000 0.63822  0.55425  0.42057  Biso   1.000  H 
  H19      1.0000 0.22105  0.01391  0.46885  Biso   1.000  H 
  H20      1.0000 0.63819  0.45293  0.92013  Biso   1.000  H 
  H21      1.0000 0.29981  0.07731  0.37704  Biso   1.000  H 
  H22      1.0000 0.82254  0.95274  0.93121  Biso   1.000  H 
  H23      1.0000 0.22104  0.99301  0.96838  Biso   1.000  H 
  H24      1.0000 0.73940  0.01375  0.38286  Biso   1.000  H 
  H25      1.0000 0.89556  0.80142  0.89712  Biso   1.000  H 
  H26      1.0000 0.39556  0.30155  0.89724  Biso   1.000  H 
  H27      1.0000 0.16075  0.57749  0.47447  Biso   1.000  H 
  H28      1.0000 0.13818  0.95287  0.92015  Biso   1.000  H 
  H29      1.0000 0.08134  0.40723  0.89086  Biso   1.000  H 
  H30      1.0000 0.79982  0.57724  0.37694  Biso   1.000  H 
  H31      1.0000 0.73970  0.99323  0.88317  Biso   1.000  H 
  H32      1.0000 0.32254  0.45281  0.93131  Biso   1.000  H 
  H33      1.0000 0.58127  0.09952  0.39079  Biso   1.000  H 
  H34      1.0000 0.66074  0.07750  0.47448  Biso   1.000  H 
  H35      1.0000 0.39541  0.70454  0.39723  Biso   1.000  H 
  H36      1.0000 0.56495  0.30171  0.95371  Biso   1.000  H 
  H37      1.0000 0.82227  0.05377  0.43091  Biso   1.000  H 
  H38      1.0000 0.23969  0.49324  0.88322  Biso   1.000  H 
  H39      1.0000 0.29980  0.92899  0.87694  Biso   1.000  H 
  H40      1.0000 0.87943  0.40608  0.96048  Biso   1.000  H 
  N1       1.0000 0.02663  0.39936  0.07621  Biso   1.000  N 
  N2       1.0000 0.02657  0.60660  0.57610  Biso   1.000  N 
  N3       1.0000 0.93939  0.33327  0.59719  Biso   1.000  N 
  N4       1.0000 0.43403  0.10651  0.27459  Biso   1.000  N 
  N5       1.0000 0.52656  0.10670  0.57616  Biso   1.000  N 
  N6       1.0000 0.43939  0.83336  0.59732  Biso   1.000  N 
  N7       1.0000 0.02111  0.67236  0.75334  Biso   1.000  N 
  N8       1.0000 0.52121  0.83362  0.25358  Biso   1.000  N 
  N9       1.0000 0.43404  0.89889  0.77472  Biso   1.000  N 
  N10      1.0000 0.93943  0.67213  0.09713  Biso   1.000  N 
  N11      1.0000 0.52111  0.17248  0.75341  Biso   1.000  N 
  N12      1.0000 0.93404  0.39877  0.77462  Biso   1.000  N 
  N13      1.0000 0.43943  0.17222  0.09723  Biso   1.000  N 
  N14      1.0000 0.52664  0.89947  0.07629  Biso   1.000  N 
  N15      1.0000 0.93404  0.60644  0.27450  Biso   1.000  N 
  N16      1.0000 0.02121  0.33351  0.25350  Biso   1.000  N 
  Zn1      1.0000 0.48027  0.96328  0.42518  Biso   1.000  Zn
  Zn2      1.0000 0.48028  0.04232  0.92527  Biso   1.000  Zn
  Zn3      1.0000 0.98028  0.54222  0.92518  Biso   1.000  Zn
  Zn4      1.0000 0.98028  0.46321  0.42514  Biso   1.000  Zn
