data_image0
_cell_length_a       28.8475
_cell_length_b       10.2227
_cell_length_c       7.07642
_cell_angle_alpha    91.4304
_cell_angle_beta     95.8774
_cell_angle_gamma    90.0231

_symmetry_space_group_name_H-M    "P 1"
_symmetry_int_tables_number       1

loop_
  _symmetry_equiv_pos_as_xyz
  'x, y, z'

loop_
  _atom_site_label
  _atom_site_occupancy
  _atom_site_fract_x
  _atom_site_fract_y
  _atom_site_fract_z
  _atom_site_thermal_displace_type
  _atom_site_B_iso_or_equiv
  _atom_site_type_symbol
  C1       1.0000 0.59463  0.18110  0.69118  Biso   1.000  C 
  C2       1.0000 0.89052  0.39835  0.80897  Biso   1.000  C 
  C3       1.0000 0.39055  0.89815  0.80980  Biso   1.000  C 
  C4       1.0000 0.30251  0.33232  0.03569  Biso   1.000  C 
  C5       1.0000 0.57070  0.90001  0.04051  Biso   1.000  C 
  C6       1.0000 0.39907  0.19374  0.03428  Biso   1.000  C 
  C7       1.0000 0.09438  0.32591  0.18405  Biso   1.000  C 
  C8       1.0000 0.31768  0.22564  0.15243  Biso   1.000  C 
  C9       1.0000 0.15807  0.17526  0.31424  Biso   1.000  C 
  C10      1.0000 0.67551  0.84560  0.10089  Biso   1.000  C 
  C11      1.0000 0.72284  0.80730  0.11550  Biso   1.000  C 
  C12      1.0000 0.75661  0.87182  0.01768  Biso   1.000  C 
  C13      1.0000 0.23770  0.20021  0.23431  Biso   1.000  C 
  C14      1.0000 0.28501  0.16184  0.24912  Biso   1.000  C 
  C15      1.0000 0.09461  0.68116  0.69072  Biso   1.000  C 
  C16      1.0000 0.06156  0.31367  0.31643  Biso   1.000  C 
  C17      1.0000 0.80249  0.83252  0.03570  Biso   1.000  C 
  C18      1.0000 0.88973  0.60702  0.30991  Biso   1.000  C 
  C19      1.0000 0.23817  0.80636  0.73847  Biso   1.000  C 
  C20      1.0000 0.78506  0.66194  0.24910  Biso   1.000  C 
  C21      1.0000 0.06256  0.69252  0.82706  Biso   1.000  C 
  C22      1.0000 0.31756  0.77997  0.64893  Biso   1.000  C 
  C23      1.0000 0.75583  0.13191  0.51176  Biso   1.000  C 
  C24      1.0000 0.30175  0.67169  0.52833  Biso   1.000  C 
  C25      1.0000 0.28551  0.84501  0.75136  Biso   1.000  C 
  C26      1.0000 0.73774  0.70028  0.23451  Biso   1.000  C 
  C27      1.0000 0.78551  0.34511  0.75075  Biso   1.000  C 
  C28      1.0000 0.73817  0.30644  0.73805  Biso   1.000  C 
  C29      1.0000 0.14287  0.28183  0.19739  Biso   1.000  C 
  C30      1.0000 0.81754  0.28005  0.64826  Biso   1.000  C 
  C31      1.0000 0.25586  0.63191  0.51211  Biso   1.000  C 
  C32      1.0000 0.89802  0.31365  0.52377  Biso   1.000  C 
  C33      1.0000 0.56264  0.19232  0.82776  Biso   1.000  C 
  C34      1.0000 0.80171  0.17173  0.52778  Biso   1.000  C 
  C35      1.0000 0.25664  0.37164  0.01744  Biso   1.000  C 
  C36      1.0000 0.36614  0.18137  0.16616  Biso   1.000  C 
  C37      1.0000 0.20392  0.13587  0.33225  Biso   1.000  C 
  C38      1.0000 0.81769  0.72579  0.15228  Biso   1.000  C 
  C39      1.0000 0.56161  0.81364  0.31714  Biso   1.000  C 
  C40      1.0000 0.39803  0.81357  0.52451  Biso   1.000  C 
  C41      1.0000 0.15905  0.83291  0.82484  Biso   1.000  C 
  C42      1.0000 0.14321  0.72484  0.70395  Biso   1.000  C 
  C43      1.0000 0.67526  0.15936  0.60210  Biso   1.000  C 
  C44      1.0000 0.72264  0.19770  0.61520  Biso   1.000  C 
  C45      1.0000 0.20498  0.87223  0.84176  Biso   1.000  C 
  C46      1.0000 0.70399  0.63586  0.33252  Biso   1.000  C 
  C47      1.0000 0.22283  0.30721  0.11519  Biso   1.000  C 
  C48      1.0000 0.17551  0.34559  0.10047  Biso   1.000  C 
  C49      1.0000 0.36605  0.82455  0.66119  Biso   1.000  C 
  C50      1.0000 0.07002  0.60830  0.54157  Biso   1.000  C 
  C51      1.0000 0.56999  0.10838  0.54202  Biso   1.000  C 
  C52      1.0000 0.86614  0.68151  0.16578  Biso   1.000  C 
  C53      1.0000 0.65813  0.67519  0.31462  Biso   1.000  C 
  C54      1.0000 0.64289  0.78176  0.19784  Biso   1.000  C 
  C55      1.0000 0.38969  0.10683  0.31031  Biso   1.000  C 
  C56      1.0000 0.59441  0.82582  0.18463  Biso   1.000  C 
  C57      1.0000 0.89903  0.69381  0.03371  Biso   1.000  C 
  C58      1.0000 0.70502  0.37232  0.84147  Biso   1.000  C 
  C59      1.0000 0.22266  0.69766  0.61550  Biso   1.000  C 
  C60      1.0000 0.07069  0.40015  0.03991  Biso   1.000  C 
  C61      1.0000 0.64322  0.22484  0.70409  Biso   1.000  C 
  C62      1.0000 0.65908  0.33298  0.82483  Biso   1.000  C 
  C63      1.0000 0.86603  0.32468  0.66041  Biso   1.000  C 
  C64      1.0000 0.17528  0.65934  0.60215  Biso   1.000  C 
  H1       1.0000 0.37966  0.92887  0.94644  Biso   1.000  H 
  H2       1.0000 0.79645  0.43001  0.84127  Biso   1.000  H 
  H3       1.0000 0.06680  0.73801  0.96817  Biso   1.000  H 
  H4       1.0000 0.13275  0.12357  0.38969  Biso   1.000  H 
  H5       1.0000 0.21486  0.05407  0.42262  Biso   1.000  H 
  H6       1.0000 0.89382  0.26773  0.38295  Biso   1.000  H 
  H7       1.0000 0.56504  0.76710  0.45418  Biso   1.000  H 
  H8       1.0000 0.87798  0.57510  0.44233  Biso   1.000  H 
  H9       1.0000 0.66503  0.92916  0.01329  Biso   1.000  H 
  H10      1.0000 0.06496  0.26710  0.45346  Biso   1.000  H 
  H11      1.0000 0.37791  0.07483  0.44262  Biso   1.000  H 
  H12      1.0000 0.32663  0.61898  0.44865  Biso   1.000  H 
  H13      1.0000 0.24447  0.54875  0.41887  Biso   1.000  H 
  H14      1.0000 0.16506  0.42914  0.01280  Biso   1.000  H 
  H15      1.0000 0.63421  0.38598  0.90411  Biso   1.000  H 
  H16      1.0000 0.08093  0.57776  0.40487  Biso   1.000  H 
  H17      1.0000 0.58234  0.93179  0.90784  Biso   1.000  H 
  H18      1.0000 0.71496  0.55406  0.42284  Biso   1.000  H 
  H19      1.0000 0.63284  0.62342  0.39009  Biso   1.000  H 
  H20      1.0000 0.71647  0.45546  0.93464  Biso   1.000  H 
  H21      1.0000 0.21641  0.95533  0.93505  Biso   1.000  H 
  H22      1.0000 0.87961  0.42912  0.94557  Biso   1.000  H 
  H23      1.0000 0.74443  0.04867  0.41868  Biso   1.000  H 
  H24      1.0000 0.39580  0.24052  0.89741  Biso   1.000  H 
  H25      1.0000 0.16431  0.57452  0.51150  Biso   1.000  H 
  H26      1.0000 0.74569  0.95377  0.92755  Biso   1.000  H 
  H27      1.0000 0.13415  0.88591  0.90401  Biso   1.000  H 
  H28      1.0000 0.08236  0.43197  0.90732  Biso   1.000  H 
  H29      1.0000 0.89571  0.74053  0.89678  Biso   1.000  H 
  H30      1.0000 0.79552  0.57836  0.33667  Biso   1.000  H 
  H31      1.0000 0.82780  0.88434  0.96045  Biso   1.000  H 
  H32      1.0000 0.32785  0.38409  0.96050  Biso   1.000  H 
  H33      1.0000 0.58085  0.07794  0.40521  Biso   1.000  H 
  H34      1.0000 0.66427  0.07452  0.51153  Biso   1.000  H 
  H35      1.0000 0.39382  0.76772  0.38364  Biso   1.000  H 
  H36      1.0000 0.56695  0.23758  0.96902  Biso   1.000  H 
  H37      1.0000 0.29644  0.92990  0.84194  Biso   1.000  H 
  H38      1.0000 0.29544  0.07829  0.33679  Biso   1.000  H 
  H39      1.0000 0.82658  0.11896  0.44808  Biso   1.000  H 
  H40      1.0000 0.24574  0.45352  0.92715  Biso   1.000  H 
  N1       1.0000 0.52190  0.87714  0.25716  Biso   1.000  N 
  N2       1.0000 0.52725  0.07753  0.58809  Biso   1.000  N 
  N3       1.0000 0.02244  0.62962  0.76444  Biso   1.000  N 
  N4       1.0000 0.93801  0.37741  0.58575  Biso   1.000  N 
  N5       1.0000 0.02725  0.57751  0.58744  Biso   1.000  N 
  N6       1.0000 0.02771  0.43073  0.08499  Biso   1.000  N 
  N7       1.0000 0.43803  0.87730  0.58651  Biso   1.000  N 
  N8       1.0000 0.43270  0.07616  0.26563  Biso   1.000  N 
  N9       1.0000 0.02186  0.37715  0.25637  Biso   1.000  N 
  N10      1.0000 0.52251  0.12948  0.76523  Biso   1.000  N 
  N11      1.0000 0.43320  0.92963  0.76336  Biso   1.000  N 
  N12      1.0000 0.93271  0.57632  0.26503  Biso   1.000  N 
  N13      1.0000 0.52774  0.93066  0.08572  Biso   1.000  N 
  N14      1.0000 0.93867  0.63009  0.09388  Biso   1.000  N 
  N15      1.0000 0.93317  0.42980  0.76255  Biso   1.000  N 
  N16      1.0000 0.43870  0.13001  0.09457  Biso   1.000  N 
  Zn1      1.0000 0.98064  0.53771  0.92667  Biso   1.000  Zn
  Zn2      1.0000 0.47979  0.96929  0.42424  Biso   1.000  Zn
  Zn3      1.0000 0.48069  0.03770  0.92731  Biso   1.000  Zn
  Zn4      1.0000 0.97979  0.46941  0.42349  Biso   1.000  Zn
