data_image0
_cell_length_a       23.2833
_cell_length_b       20.6564
_cell_length_c       7.08148
_cell_angle_alpha    90.0906
_cell_angle_beta     104.084
_cell_angle_gamma    89.9984

_symmetry_space_group_name_H-M    "P 1"
_symmetry_int_tables_number       1

loop_
  _symmetry_equiv_pos_as_xyz
  'x, y, z'

loop_
  _atom_site_label
  _atom_site_occupancy
  _atom_site_fract_x
  _atom_site_fract_y
  _atom_site_fract_z
  _atom_site_thermal_displace_type
  _atom_site_B_iso_or_equiv
  _atom_site_type_symbol
  C1       1.0000 0.60096  0.13016  0.71466  Biso   1.000  C 
  C2       1.0000 0.20485  0.23791  0.40257  Biso   1.000  C 
  C3       1.0000 0.81320  0.67857  0.12439  Biso   1.000  C 
  C4       1.0000 0.56648  0.88935  0.34801  Biso   1.000  C 
  C5       1.0000 0.35991  0.87635  0.63715  Biso   1.000  C 
  C6       1.0000 0.57943  0.08504  0.56479  Biso   1.000  C 
  C7       1.0000 0.39398  0.88935  0.50241  Biso   1.000  C 
  C8       1.0000 0.16178  0.72247  0.88837  Biso   1.000  C 
  C9       1.0000 0.14740  0.67889  0.72717  Biso   1.000  C 
  C10      1.0000 0.67871  0.18445  0.58391  Biso   1.000  C 
  C11      1.0000 0.72345  0.23156  0.59441  Biso   1.000  C 
  C12      1.0000 0.20513  0.76881  0.90298  Biso   1.000  C 
  C13      1.0000 0.70486  0.73791  0.40255  Biso   1.000  C 
  C14      1.0000 0.22305  0.27452  0.09352  Biso   1.000  C 
  C15      1.0000 0.17830  0.32162  0.08274  Biso   1.000  C 
  C16      1.0000 0.85991  0.37636  0.63715  Biso   1.000  C 
  C17      1.0000 0.07943  0.58505  0.56476  Biso   1.000  C 
  C18      1.0000 0.66153  0.78426  0.38773  Biso   1.000  C 
  C19      1.0000 0.89397  0.38935  0.50241  Biso   1.000  C 
  C20      1.0000 0.64710  0.82755  0.22624  Biso   1.000  C 
  C21      1.0000 0.89387  0.61690  0.00256  Biso   1.000  C 
  C22      1.0000 0.38124  0.08493  0.28683  Biso   1.000  C 
  C23      1.0000 0.60077  0.87640  0.21380  Biso   1.000  C 
  C24      1.0000 0.85971  0.62993  0.13707  Biso   1.000  C 
  C25      1.0000 0.70513  0.26880  0.90299  Biso   1.000  C 
  C26      1.0000 0.22346  0.73156  0.59439  Biso   1.000  C 
  C27      1.0000 0.17871  0.68445  0.58390  Biso   1.000  C 
  C28      1.0000 0.07960  0.42173  0.06474  Biso   1.000  C 
  C29      1.0000 0.64740  0.17888  0.72719  Biso   1.000  C 
  C30      1.0000 0.66179  0.22246  0.88840  Biso   1.000  C 
  C31      1.0000 0.79907  0.28409  0.46349  Biso   1.000  C 
  C32      1.0000 0.35970  0.12992  0.13708  Biso   1.000  C 
  C33      1.0000 0.88146  0.42149  0.78696  Biso   1.000  C 
  C34      1.0000 0.25569  0.73781  0.44878  Biso   1.000  C 
  C35      1.0000 0.38145  0.92148  0.78696  Biso   1.000  C 
  C36      1.0000 0.29870  0.22181  0.96284  Biso   1.000  C 
  C37      1.0000 0.57960  0.92174  0.06473  Biso   1.000  C 
  C38      1.0000 0.39387  0.11689  0.00256  Biso   1.000  C 
  C39      1.0000 0.06648  0.38935  0.34801  Biso   1.000  C 
  C40      1.0000 0.10077  0.37640  0.21381  Biso   1.000  C 
  C41      1.0000 0.31319  0.17856  0.12440  Biso   1.000  C 
  C42      1.0000 0.16153  0.28425  0.38774  Biso   1.000  C 
  C43      1.0000 0.67830  0.82163  0.08274  Biso   1.000  C 
  C44      1.0000 0.72306  0.77453  0.09351  Biso   1.000  C 
  C45      1.0000 0.75526  0.76804  0.94790  Biso   1.000  C 
  C46      1.0000 0.23707  0.23137  0.25693  Biso   1.000  C 
  C47      1.0000 0.28189  0.18433  0.26774  Biso   1.000  C 
  C48      1.0000 0.10096  0.63016  0.71464  Biso   1.000  C 
  C49      1.0000 0.88123  0.58493  0.28681  Biso   1.000  C 
  C50      1.0000 0.79870  0.72182  0.96283  Biso   1.000  C 
  C51      1.0000 0.14710  0.32754  0.22625  Biso   1.000  C 
  C52      1.0000 0.56684  0.11720  0.84922  Biso   1.000  C 
  C53      1.0000 0.73738  0.27505  0.75744  Biso   1.000  C 
  C54      1.0000 0.78215  0.32214  0.76796  Biso   1.000  C 
  C55      1.0000 0.73707  0.73138  0.25692  Biso   1.000  C 
  C56      1.0000 0.28215  0.82213  0.76796  Biso   1.000  C 
  C57      1.0000 0.81348  0.32764  0.62475  Biso   1.000  C 
  C58      1.0000 0.75568  0.23781  0.44879  Biso   1.000  C 
  C59      1.0000 0.31348  0.82763  0.62474  Biso   1.000  C 
  C60      1.0000 0.29907  0.78408  0.46348  Biso   1.000  C 
  C61      1.0000 0.06684  0.61719  0.84920  Biso   1.000  C 
  C62      1.0000 0.25525  0.26803  0.94790  Biso   1.000  C 
  C63      1.0000 0.78190  0.68434  0.26773  Biso   1.000  C 
  C64      1.0000 0.23739  0.77505  0.75743  Biso   1.000  C 
  H1       1.0000 0.74510  0.80047  0.82257  Biso   1.000  H 
  H2       1.0000 0.13776  0.71933  0.00247  Biso   1.000  H 
  H3       1.0000 0.82271  0.71852  0.84873  Biso   1.000  H 
  H4       1.0000 0.09277  0.43000  0.92975  Biso   1.000  H 
  H5       1.0000 0.86860  0.42963  0.92262  Biso   1.000  H 
  H6       1.0000 0.89291  0.63939  0.86331  Biso   1.000  H 
  H7       1.0000 0.16927  0.65173  0.45884  Biso   1.000  H 
  H8       1.0000 0.79141  0.65188  0.39312  Biso   1.000  H 
  H9       1.0000 0.29156  0.85487  0.89295  Biso   1.000  H 
  H10      1.0000 0.32271  0.21851  0.84874  Biso   1.000  H 
  H11      1.0000 0.59235  0.07690  0.42925  Biso   1.000  H 
  H12      1.0000 0.66927  0.15173  0.45885  Biso   1.000  H 
  H13      1.0000 0.39297  0.86676  0.36306  Biso   1.000  H 
  H14      1.0000 0.56786  0.13981  0.98855  Biso   1.000  H 
  H15      1.0000 0.74554  0.20519  0.32357  Biso   1.000  H 
  H16      1.0000 0.82307  0.28723  0.34936  Biso   1.000  H 
  H17      1.0000 0.21518  0.80153  0.02800  Biso   1.000  H 
  H18      1.0000 0.29142  0.15188  0.39313  Biso   1.000  H 
  H19      1.0000 0.24509  0.30046  0.82256  Biso   1.000  H 
  H20      1.0000 0.39289  0.13938  0.86329  Biso   1.000  H 
  H21      1.0000 0.36860  0.92962  0.92261  Biso   1.000  H 
  H22      1.0000 0.59277  0.93001  0.92974  Biso   1.000  H 
  H23      1.0000 0.06787  0.63980  0.98854  Biso   1.000  H 
  H24      1.0000 0.21492  0.20545  0.52784  Biso   1.000  H 
  H25      1.0000 0.89297  0.36676  0.36306  Biso   1.000  H 
  H26      1.0000 0.63758  0.78769  0.50196  Biso   1.000  H 
  H27      1.0000 0.56723  0.86664  0.48679  Biso   1.000  H 
  H28      1.0000 0.79155  0.35488  0.89294  Biso   1.000  H 
  H29      1.0000 0.13758  0.28770  0.50197  Biso   1.000  H 
  H30      1.0000 0.86827  0.57687  0.42226  Biso   1.000  H 
  H31      1.0000 0.71493  0.70545  0.52782  Biso   1.000  H 
  H32      1.0000 0.06722  0.36664  0.48679  Biso   1.000  H 
  H33      1.0000 0.36828  0.07687  0.42227  Biso   1.000  H 
  H34      1.0000 0.32307  0.78723  0.34934  Biso   1.000  H 
  H35      1.0000 0.24553  0.70518  0.32354  Biso   1.000  H 
  H36      1.0000 0.16876  0.35403  0.95725  Biso   1.000  H 
  H37      1.0000 0.09235  0.57691  0.42921  Biso   1.000  H 
  H38      1.0000 0.71517  0.30152  0.02802  Biso   1.000  H 
  H39      1.0000 0.66876  0.85404  0.95725  Biso   1.000  H 
  H40      1.0000 0.63778  0.21931  0.00252  Biso   1.000  H 
  N1       1.0000 0.43235  0.06843  0.06825  Biso   1.000  N 
  N2       1.0000 0.92432  0.54851  0.24380  Biso   1.000  N 
  N3       1.0000 0.52836  0.06866  0.78343  Biso   1.000  N 
  N4       1.0000 0.93236  0.56843  0.06825  Biso   1.000  N 
  N5       1.0000 0.92445  0.45794  0.74373  Biso   1.000  N 
  N6       1.0000 0.02822  0.43804  0.28271  Biso   1.000  N 
  N7       1.0000 0.42445  0.95794  0.74374  Biso   1.000  N 
  N8       1.0000 0.53656  0.95822  0.10777  Biso   1.000  N 
  N9       1.0000 0.93242  0.43793  0.56801  Biso   1.000  N 
  N10      1.0000 0.52822  0.93804  0.28271  Biso   1.000  N 
  N11      1.0000 0.42432  0.04851  0.24382  Biso   1.000  N 
  N12      1.0000 0.03638  0.54863  0.60774  Biso   1.000  N 
  N13      1.0000 0.43242  0.93793  0.56802  Biso   1.000  N 
  N14      1.0000 0.03656  0.45822  0.10777  Biso   1.000  N 
  N15      1.0000 0.53638  0.04862  0.60777  Biso   1.000  N 
  N16      1.0000 0.02837  0.56866  0.78341  Biso   1.000  N 
  Zn1      1.0000 0.98048  0.51728  0.92555  Biso   1.000  Zn
  Zn2      1.0000 0.48032  0.98933  0.42561  Biso   1.000  Zn
  Zn3      1.0000 0.48047  0.01728  0.92556  Biso   1.000  Zn
  Zn4      1.0000 0.98032  0.48934  0.42560  Biso   1.000  Zn
