data_image0
_cell_length_a       29.1345
_cell_length_b       8.82373
_cell_length_c       7.09791
_cell_angle_alpha    89.7991
_cell_angle_beta     94.146
_cell_angle_gamma    90.0274

_symmetry_space_group_name_H-M    "P 1"
_symmetry_int_tables_number       1

loop_
  _symmetry_equiv_pos_as_xyz
  'x, y, z'

loop_
  _atom_site_label
  _atom_site_occupancy
  _atom_site_fract_x
  _atom_site_fract_y
  _atom_site_fract_z
  _atom_site_thermal_displace_type
  _atom_site_B_iso_or_equiv
  _atom_site_type_symbol
  C1       1.0000 0.59411  0.20180  0.68101  Biso   1.000  C 
  C2       1.0000 0.25418  0.39232  0.00803  Biso   1.000  C 
  C3       1.0000 0.36642  0.20130  0.16891  Biso   1.000  C 
  C4       1.0000 0.20661  0.11482  0.34449  Biso   1.000  C 
  C5       1.0000 0.81760  0.74241  0.15489  Biso   1.000  C 
  C6       1.0000 0.56194  0.78995  0.31919  Biso   1.000  C 
  C7       1.0000 0.39884  0.78927  0.53367  Biso   1.000  C 
  C8       1.0000 0.16017  0.85820  0.82140  Biso   1.000  C 
  C9       1.0000 0.14296  0.74267  0.69518  Biso   1.000  C 
  C10      1.0000 0.67403  0.16423  0.59187  Biso   1.000  C 
  C11      1.0000 0.72178  0.19559  0.61029  Biso   1.000  C 
  C12      1.0000 0.20646  0.89099  0.84323  Biso   1.000  C 
  C13      1.0000 0.70661  0.61481  0.34444  Biso   1.000  C 
  C14      1.0000 0.22195  0.31168  0.11165  Biso   1.000  C 
  C15      1.0000 0.17424  0.34349  0.09381  Biso   1.000  C 
  C16      1.0000 0.36637  0.80448  0.66955  Biso   1.000  C 
  C17      1.0000 0.06987  0.62169  0.53435  Biso   1.000  C 
  C18      1.0000 0.56986  0.12176  0.53436  Biso   1.000  C 
  C19      1.0000 0.86641  0.70122  0.16884  Biso   1.000  C 
  C20      1.0000 0.66035  0.64806  0.32326  Biso   1.000  C 
  C21      1.0000 0.64316  0.76442  0.19719  Biso   1.000  C 
  C22      1.0000 0.39069  0.12118  0.31607  Biso   1.000  C 
  C23      1.0000 0.59433  0.80535  0.18289  Biso   1.000  C 
  C24      1.0000 0.89879  0.71646  0.03243  Biso   1.000  C 
  C25      1.0000 0.70646  0.39105  0.84320  Biso   1.000  C 
  C26      1.0000 0.22178  0.69556  0.61029  Biso   1.000  C 
  C27      1.0000 0.07002  0.38506  0.03550  Biso   1.000  C 
  C28      1.0000 0.64295  0.24275  0.69519  Biso   1.000  C 
  C29      1.0000 0.86637  0.30445  0.66955  Biso   1.000  C 
  C30      1.0000 0.17404  0.66417  0.59185  Biso   1.000  C 
  C31      1.0000 0.80030  0.14811  0.52885  Biso   1.000  C 
  C32      1.0000 0.56169  0.21679  0.81718  Biso   1.000  C 
  C33      1.0000 0.66017  0.35829  0.82138  Biso   1.000  C 
  C34      1.0000 0.25402  0.61538  0.50696  Biso   1.000  C 
  C35      1.0000 0.89884  0.28923  0.53366  Biso   1.000  C 
  C36      1.0000 0.89060  0.38433  0.81641  Biso   1.000  C 
  C37      1.0000 0.39059  0.88437  0.81642  Biso   1.000  C 
  C38      1.0000 0.30044  0.35900  0.02915  Biso   1.000  C 
  C39      1.0000 0.57001  0.88508  0.03549  Biso   1.000  C 
  C40      1.0000 0.09433  0.30532  0.18290  Biso   1.000  C 
  C41      1.0000 0.31760  0.24247  0.15497  Biso   1.000  C 
  C42      1.0000 0.16035  0.14805  0.32329  Biso   1.000  C 
  C43      1.0000 0.67424  0.84349  0.09376  Biso   1.000  C 
  C44      1.0000 0.72195  0.81166  0.11158  Biso   1.000  C 
  C45      1.0000 0.75418  0.89227  0.00793  Biso   1.000  C 
  C46      1.0000 0.23882  0.19539  0.24078  Biso   1.000  C 
  C47      1.0000 0.28653  0.16348  0.25850  Biso   1.000  C 
  C48      1.0000 0.09412  0.70172  0.68101  Biso   1.000  C 
  C49      1.0000 0.39879  0.21650  0.03248  Biso   1.000  C 
  C50      1.0000 0.80043  0.85893  0.02905  Biso   1.000  C 
  C51      1.0000 0.06193  0.28992  0.31919  Biso   1.000  C 
  C52      1.0000 0.81752  0.26363  0.65512  Biso   1.000  C 
  C53      1.0000 0.14316  0.26441  0.19721  Biso   1.000  C 
  C54      1.0000 0.73869  0.31084  0.73986  Biso   1.000  C 
  C55      1.0000 0.73882  0.69536  0.24071  Biso   1.000  C 
  C56      1.0000 0.28643  0.84219  0.75833  Biso   1.000  C 
  C57      1.0000 0.78643  0.34219  0.75832  Biso   1.000  C 
  C58      1.0000 0.75401  0.11540  0.50696  Biso   1.000  C 
  C59      1.0000 0.31752  0.76364  0.65511  Biso   1.000  C 
  C60      1.0000 0.06170  0.71674  0.81717  Biso   1.000  C 
  C61      1.0000 0.78653  0.66344  0.25843  Biso   1.000  C 
  C62      1.0000 0.23869  0.81080  0.73987  Biso   1.000  C 
  C63      1.0000 0.89069  0.62111  0.31601  Biso   1.000  C 
  C64      1.0000 0.30031  0.64812  0.52885  Biso   1.000  C 
  H1       1.0000 0.74159  0.02674  0.40923  Biso   1.000  H 
  H2       1.0000 0.89489  0.76716  0.89251  Biso   1.000  H 
  H3       1.0000 0.39488  0.26718  0.89254  Biso   1.000  H 
  H4       1.0000 0.16201  0.57306  0.49682  Biso   1.000  H 
  H5       1.0000 0.74177  0.98173  0.91058  Biso   1.000  H 
  H6       1.0000 0.13619  0.92201  0.90175  Biso   1.000  H 
  H7       1.0000 0.08131  0.42040  0.89964  Biso   1.000  H 
  H8       1.0000 0.79854  0.57164  0.35320  Biso   1.000  H 
  H9       1.0000 0.29846  0.93331  0.85338  Biso   1.000  H 
  H10      1.0000 0.32443  0.42322  0.94869  Biso   1.000  H 
  H11      1.0000 0.58118  0.08647  0.39885  Biso   1.000  H 
  H12      1.0000 0.66200  0.07312  0.49685  Biso   1.000  H 
  H13      1.0000 0.39504  0.73869  0.39411  Biso   1.000  H 
  H14      1.0000 0.56555  0.26736  0.95675  Biso   1.000  H 
  H15      1.0000 0.29854  0.07166  0.35325  Biso   1.000  H 
  H16      1.0000 0.82428  0.08417  0.44859  Biso   1.000  H 
  H17      1.0000 0.24177  0.48179  0.91069  Biso   1.000  H 
  H18      1.0000 0.87923  0.41966  0.95185  Biso   1.000  H 
  H19      1.0000 0.82443  0.92313  0.94856  Biso   1.000  H 
  H20      1.0000 0.21889  0.97968  0.94091  Biso   1.000  H 
  H21      1.0000 0.63619  0.42213  0.90174  Biso   1.000  H 
  H22      1.0000 0.63637  0.58388  0.40384  Biso   1.000  H 
  H23      1.0000 0.71890  0.47974  0.94088  Biso   1.000  H 
  H24      1.0000 0.37923  0.91969  0.95184  Biso   1.000  H 
  H25      1.0000 0.79847  0.43331  0.85337  Biso   1.000  H 
  H26      1.0000 0.06556  0.76731  0.95673  Biso   1.000  H 
  H27      1.0000 0.13637  0.08385  0.40385  Biso   1.000  H 
  H28      1.0000 0.89504  0.23865  0.39410  Biso   1.000  H 
  H29      1.0000 0.56586  0.73945  0.45922  Biso   1.000  H 
  H30      1.0000 0.87939  0.58579  0.45186  Biso   1.000  H 
  H31      1.0000 0.21903  0.02545  0.44195  Biso   1.000  H 
  H32      1.0000 0.06585  0.23939  0.45921  Biso   1.000  H 
  H33      1.0000 0.37940  0.08589  0.45195  Biso   1.000  H 
  H34      1.0000 0.32429  0.58420  0.44857  Biso   1.000  H 
  H35      1.0000 0.24160  0.52673  0.40922  Biso   1.000  H 
  H36      1.0000 0.16222  0.43528  0.99904  Biso   1.000  H 
  H37      1.0000 0.08119  0.58639  0.39884  Biso   1.000  H 
  H38      1.0000 0.58130  0.92042  0.89963  Biso   1.000  H 
  H39      1.0000 0.66222  0.93528  0.99898  Biso   1.000  H 
  H40      1.0000 0.71902  0.52544  0.44189  Biso   1.000  H 
  N1       1.0000 0.43349  0.91637  0.76931  Biso   1.000  N 
  N2       1.0000 0.93353  0.58899  0.26862  Biso   1.000  N 
  N3       1.0000 0.52712  0.91682  0.08266  Biso   1.000  N 
  N4       1.0000 0.43874  0.14803  0.09275  Biso   1.000  N 
  N5       1.0000 0.93350  0.41633  0.76930  Biso   1.000  N 
  N6       1.0000 0.52176  0.14826  0.75730  Biso   1.000  N 
  N7       1.0000 0.93874  0.64799  0.09272  Biso   1.000  N 
  N8       1.0000 0.02193  0.35792  0.25864  Biso   1.000  N 
  N9       1.0000 0.52193  0.85795  0.25865  Biso   1.000  N 
  N10      1.0000 0.43880  0.85751  0.59392  Biso   1.000  N 
  N11      1.0000 0.02713  0.41680  0.08266  Biso   1.000  N 
  N12      1.0000 0.02702  0.58942  0.58184  Biso   1.000  N 
  N13      1.0000 0.93880  0.35747  0.59391  Biso   1.000  N 
  N14      1.0000 0.02176  0.64822  0.75728  Biso   1.000  N 
  N15      1.0000 0.52702  0.08945  0.58187  Biso   1.000  N 
  N16      1.0000 0.43353  0.08905  0.26866  Biso   1.000  N 
  Zn1      1.0000 0.48023  0.03965  0.92551  Biso   1.000  Zn
  Zn2      1.0000 0.98024  0.53961  0.92548  Biso   1.000  Zn
  Zn3      1.0000 0.48033  0.96605  0.42586  Biso   1.000  Zn
  Zn4      1.0000 0.98033  0.46603  0.42585  Biso   1.000  Zn
