data_image0
_cell_length_a       28.5109
_cell_length_b       11.6767
_cell_length_c       6.79374
_cell_angle_alpha    90.2522
_cell_angle_beta     99.9258
_cell_angle_gamma    89.9846

_symmetry_space_group_name_H-M    "P 1"
_symmetry_int_tables_number       1

loop_
  _symmetry_equiv_pos_as_xyz
  'x, y, z'

loop_
  _atom_site_label
  _atom_site_occupancy
  _atom_site_fract_x
  _atom_site_fract_y
  _atom_site_fract_z
  _atom_site_thermal_displace_type
  _atom_site_B_iso_or_equiv
  _atom_site_type_symbol
  C1       1.0000 0.59625  0.16364  0.70254  Biso   1.000  C 
  C2       1.0000 0.36457  0.16317  0.15032  Biso   1.000  C 
  C3       1.0000 0.21245  0.19664  0.40931  Biso   1.000  C 
  C4       1.0000 0.81580  0.70599  0.13272  Biso   1.000  C 
  C5       1.0000 0.56287  0.82529  0.32851  Biso   1.000  C 
  C6       1.0000 0.36426  0.84364  0.64909  Biso   1.000  C 
  C7       1.0000 0.39752  0.82613  0.52104  Biso   1.000  C 
  C8       1.0000 0.16620  0.77208  0.89002  Biso   1.000  C 
  C9       1.0000 0.14488  0.70732  0.71942  Biso   1.000  C 
  C10      1.0000 0.67206  0.18401  0.57239  Biso   1.000  C 
  C11      1.0000 0.71964  0.22193  0.58904  Biso   1.000  C 
  C12      1.0000 0.21242  0.81061  0.91037  Biso   1.000  C 
  C13      1.0000 0.71245  0.69665  0.40932  Biso   1.000  C 
  C14      1.0000 0.21987  0.28436  0.08881  Biso   1.000  C 
  C15      1.0000 0.17223  0.32201  0.07169  Biso   1.000  C 
  C16      1.0000 0.57246  0.08869  0.55548  Biso   1.000  C 
  C17      1.0000 0.07246  0.58871  0.55553  Biso   1.000  C 
  C18      1.0000 0.86427  0.34362  0.64912  Biso   1.000  C 
  C19      1.0000 0.66620  0.27205  0.88998  Biso   1.000  C 
  C20      1.0000 0.64488  0.20729  0.71937  Biso   1.000  C 
  C21      1.0000 0.07250  0.41707  0.05474  Biso   1.000  C 
  C22      1.0000 0.21963  0.72196  0.58905  Biso   1.000  C 
  C23      1.0000 0.71241  0.31059  0.91033  Biso   1.000  C 
  C24      1.0000 0.17205  0.68405  0.57242  Biso   1.000  C 
  C25      1.0000 0.59625  0.84237  0.20104  Biso   1.000  C 
  C26      1.0000 0.38833  0.08859  0.29682  Biso   1.000  C 
  C27      1.0000 0.89802  0.68057  0.02334  Biso   1.000  C 
  C28      1.0000 0.64493  0.79903  0.21805  Biso   1.000  C 
  C29      1.0000 0.66620  0.73489  0.38853  Biso   1.000  C 
  C30      1.0000 0.86457  0.66317  0.15036  Biso   1.000  C 
  C31      1.0000 0.79412  0.23625  0.46113  Biso   1.000  C 
  C32      1.0000 0.24822  0.30784  0.94089  Biso   1.000  C 
  C33      1.0000 0.89753  0.32612  0.52108  Biso   1.000  C 
  C34      1.0000 0.24784  0.69814  0.44046  Biso   1.000  C 
  C35      1.0000 0.88825  0.41809  0.79649  Biso   1.000  C 
  C36      1.0000 0.38824  0.91810  0.79647  Biso   1.000  C 
  C37      1.0000 0.29452  0.26993  0.96203  Biso   1.000  C 
  C38      1.0000 0.57250  0.91708  0.05471  Biso   1.000  C 
  C39      1.0000 0.39801  0.18057  0.02329  Biso   1.000  C 
  C40      1.0000 0.09625  0.34236  0.20107  Biso   1.000  C 
  C41      1.0000 0.31579  0.20598  0.13269  Biso   1.000  C 
  C42      1.0000 0.16620  0.23487  0.38854  Biso   1.000  C 
  C43      1.0000 0.67223  0.82201  0.07167  Biso   1.000  C 
  C44      1.0000 0.71987  0.78437  0.08881  Biso   1.000  C 
  C45      1.0000 0.74822  0.80784  0.94089  Biso   1.000  C 
  C46      1.0000 0.24079  0.22008  0.26136  Biso   1.000  C 
  C47      1.0000 0.28846  0.18263  0.27873  Biso   1.000  C 
  C48      1.0000 0.09625  0.66367  0.70259  Biso   1.000  C 
  C49      1.0000 0.06288  0.32529  0.32855  Biso   1.000  C 
  C50      1.0000 0.79453  0.76992  0.96205  Biso   1.000  C 
  C51      1.0000 0.88833  0.58858  0.29686  Biso   1.000  C 
  C52      1.0000 0.24065  0.78685  0.76178  Biso   1.000  C 
  C53      1.0000 0.78846  0.68264  0.27876  Biso   1.000  C 
  C54      1.0000 0.06294  0.68070  0.83061  Biso   1.000  C 
  C55      1.0000 0.31549  0.80080  0.63192  Biso   1.000  C 
  C56      1.0000 0.74785  0.19811  0.44047  Biso   1.000  C 
  C57      1.0000 0.29411  0.73628  0.46111  Biso   1.000  C 
  C58      1.0000 0.28828  0.82451  0.77861  Biso   1.000  C 
  C59      1.0000 0.74079  0.72009  0.26137  Biso   1.000  C 
  C60      1.0000 0.78828  0.32449  0.77862  Biso   1.000  C 
  C61      1.0000 0.74065  0.28682  0.76177  Biso   1.000  C 
  C62      1.0000 0.56295  0.18068  0.83057  Biso   1.000  C 
  C63      1.0000 0.14494  0.29902  0.21807  Biso   1.000  C 
  C64      1.0000 0.81550  0.30078  0.63194  Biso   1.000  C 
  H1       1.0000 0.39530  0.23101  0.88788  Biso   1.000  H 
  H2       1.0000 0.15695  0.63459  0.43979  Biso   1.000  H 
  H3       1.0000 0.73263  0.85626  0.80855  Biso   1.000  H 
  H4       1.0000 0.14563  0.79093  0.00758  Biso   1.000  H 
  H5       1.0000 0.81522  0.78859  0.84509  Biso   1.000  H 
  H6       1.0000 0.08454  0.45412  0.92581  Biso   1.000  H 
  H7       1.0000 0.89531  0.73102  0.88793  Biso   1.000  H 
  H8       1.0000 0.80350  0.63371  0.41128  Biso   1.000  H 
  H9       1.0000 0.81472  0.21722  0.34375  Biso   1.000  H 
  H10      1.0000 0.31522  0.28861  0.84507  Biso   1.000  H 
  H11      1.0000 0.58447  0.05159  0.42601  Biso   1.000  H 
  H12      1.0000 0.65695  0.13456  0.43975  Biso   1.000  H 
  H13      1.0000 0.39460  0.77565  0.38485  Biso   1.000  H 
  H14      1.0000 0.56571  0.23124  0.96667  Biso   1.000  H 
  H15      1.0000 0.22805  0.85961  0.04274  Biso   1.000  H 
  H16      1.0000 0.30341  0.87390  0.91129  Biso   1.000  H 
  H17      1.0000 0.30351  0.13369  0.41123  Biso   1.000  H 
  H18      1.0000 0.23262  0.35627  0.80856  Biso   1.000  H 
  H19      1.0000 0.87635  0.45523  0.92616  Biso   1.000  H 
  H20      1.0000 0.73217  0.14924  0.30803  Biso   1.000  H 
  H21      1.0000 0.72805  0.35959  0.04273  Biso   1.000  H 
  H22      1.0000 0.72804  0.64815  0.54155  Biso   1.000  H 
  H23      1.0000 0.37634  0.95523  0.92613  Biso   1.000  H 
  H24      1.0000 0.06570  0.73126  0.96671  Biso   1.000  H 
  H25      1.0000 0.14554  0.21631  0.50564  Biso   1.000  H 
  H26      1.0000 0.22804  0.14811  0.54152  Biso   1.000  H 
  H27      1.0000 0.89461  0.27564  0.38489  Biso   1.000  H 
  H28      1.0000 0.56562  0.77484  0.46392  Biso   1.000  H 
  H29      1.0000 0.80341  0.37388  0.91129  Biso   1.000  H 
  H30      1.0000 0.87623  0.55146  0.42558  Biso   1.000  H 
  H31      1.0000 0.64554  0.71633  0.50563  Biso   1.000  H 
  H32      1.0000 0.06562  0.27485  0.46397  Biso   1.000  H 
  H33      1.0000 0.37623  0.05146  0.42554  Biso   1.000  H 
  H34      1.0000 0.31471  0.71725  0.34372  Biso   1.000  H 
  H35      1.0000 0.23215  0.64927  0.30804  Biso   1.000  H 
  H36      1.0000 0.15717  0.37097  0.93918  Biso   1.000  H 
  H37      1.0000 0.65717  0.87095  0.93915  Biso   1.000  H 
  H38      1.0000 0.64562  0.29090  0.00753  Biso   1.000  H 
  H39      1.0000 0.08447  0.55161  0.42605  Biso   1.000  H 
  H40      1.0000 0.58453  0.95413  0.92579  Biso   1.000  H 
  N1       1.0000 0.02273  0.38541  0.26272  Biso   1.000  N 
  N2       1.0000 0.93172  0.44327  0.75724  Biso   1.000  N 
  N3       1.0000 0.93820  0.62064  0.08952  Biso   1.000  N 
  N4       1.0000 0.52904  0.94271  0.09400  Biso   1.000  N 
  N5       1.0000 0.93184  0.56322  0.25801  Biso   1.000  N 
  N6       1.0000 0.43171  0.94328  0.75720  Biso   1.000  N 
  N7       1.0000 0.52281  0.12031  0.76429  Biso   1.000  N 
  N8       1.0000 0.43819  0.12064  0.08947  Biso   1.000  N 
  N9       1.0000 0.43184  0.06323  0.25796  Biso   1.000  N 
  N10      1.0000 0.02904  0.44271  0.09403  Biso   1.000  N 
  N11      1.0000 0.52273  0.88541  0.26267  Biso   1.000  N 
  N12      1.0000 0.52905  0.06287  0.59481  Biso   1.000  N 
  N13      1.0000 0.02281  0.62033  0.76433  Biso   1.000  N 
  N14      1.0000 0.43781  0.88588  0.58750  Biso   1.000  N 
  N15      1.0000 0.02905  0.56289  0.59485  Biso   1.000  N 
  N16      1.0000 0.93782  0.38587  0.58754  Biso   1.000  N 
  Zn1      1.0000 0.48030  0.96275  0.42553  Biso   1.000  Zn
  Zn2      1.0000 0.48051  0.04308  0.92655  Biso   1.000  Zn
  Zn3      1.0000 0.98051  0.54308  0.92658  Biso   1.000  Zn
  Zn4      1.0000 0.98030  0.46275  0.42558  Biso   1.000  Zn
