data_image0
_cell_length_a       27.154
_cell_length_b       14.9499
_cell_length_c       6.74209
_cell_angle_alpha    89.9875
_cell_angle_beta     104.187
_cell_angle_gamma    90.0011

_symmetry_space_group_name_H-M    "P 1"
_symmetry_int_tables_number       1

loop_
  _symmetry_equiv_pos_as_xyz
  'x, y, z'

loop_
  _atom_site_label
  _atom_site_occupancy
  _atom_site_fract_x
  _atom_site_fract_y
  _atom_site_fract_z
  _atom_site_thermal_displace_type
  _atom_site_B_iso_or_equiv
  _atom_site_type_symbol
  C1       1.0000 0.59824  0.14467  0.71144  Biso   1.000  C 
  C2       1.0000 0.38510  0.92730  0.78374  Biso   1.000  C 
  C3       1.0000 0.29404  0.24924  0.95796  Biso   1.000  C 
  C4       1.0000 0.57559  0.92695  0.06793  Biso   1.000  C 
  C5       1.0000 0.39654  0.15191  0.01386  Biso   1.000  C 
  C6       1.0000 0.06417  0.35390  0.33825  Biso   1.000  C 
  C7       1.0000 0.09837  0.36178  0.21247  Biso   1.000  C 
  C8       1.0000 0.31433  0.19089  0.12542  Biso   1.000  C 
  C9       1.0000 0.16661  0.25631  0.39383  Biso   1.000  C 
  C10      1.0000 0.67370  0.82629  0.07872  Biso   1.000  C 
  C11      1.0000 0.72040  0.78216  0.09123  Biso   1.000  C 
  C12      1.0000 0.74876  0.79337  0.94160  Biso   1.000  C 
  C13      1.0000 0.24027  0.22345  0.26049  Biso   1.000  C 
  C14      1.0000 0.28698  0.17936  0.27309  Biso   1.000  C 
  C15      1.0000 0.09826  0.64465  0.71155  Biso   1.000  C 
  C16      1.0000 0.88523  0.57913  0.28453  Biso   1.000  C 
  C17      1.0000 0.79406  0.74925  0.95792  Biso   1.000  C 
  C18      1.0000 0.14634  0.31477  0.22654  Biso   1.000  C 
  C19      1.0000 0.56412  0.15238  0.83758  Biso   1.000  C 
  C20      1.0000 0.74006  0.28319  0.75907  Biso   1.000  C 
  C21      1.0000 0.78680  0.32718  0.77189  Biso   1.000  C 
  C22      1.0000 0.74027  0.72348  0.26042  Biso   1.000  C 
  C23      1.0000 0.28680  0.82719  0.77187  Biso   1.000  C 
  C24      1.0000 0.81422  0.31552  0.62457  Biso   1.000  C 
  C25      1.0000 0.74861  0.21317  0.44055  Biso   1.000  C 
  C26      1.0000 0.31422  0.81552  0.62455  Biso   1.000  C 
  C27      1.0000 0.29394  0.75719  0.45708  Biso   1.000  C 
  C28      1.0000 0.06414  0.65236  0.83771  Biso   1.000  C 
  C29      1.0000 0.78699  0.67940  0.27307  Biso   1.000  C 
  C30      1.0000 0.24006  0.78319  0.75909  Biso   1.000  C 
  C31      1.0000 0.24860  0.71317  0.44056  Biso   1.000  C 
  C32      1.0000 0.88510  0.42729  0.78383  Biso   1.000  C 
  C33      1.0000 0.24875  0.29335  0.94168  Biso   1.000  C 
  C34      1.0000 0.79395  0.25719  0.45709  Biso   1.000  C 
  C35      1.0000 0.36236  0.14404  0.13971  Biso   1.000  C 
  C36      1.0000 0.21189  0.21216  0.41004  Biso   1.000  C 
  C37      1.0000 0.81434  0.69091  0.12541  Biso   1.000  C 
  C38      1.0000 0.56417  0.85391  0.33808  Biso   1.000  C 
  C39      1.0000 0.36232  0.86221  0.63927  Biso   1.000  C 
  C40      1.0000 0.39663  0.85405  0.51410  Biso   1.000  C 
  C41      1.0000 0.16641  0.75033  0.89243  Biso   1.000  C 
  C42      1.0000 0.14617  0.69181  0.72528  Biso   1.000  C 
  C43      1.0000 0.67351  0.18031  0.57755  Biso   1.000  C 
  C44      1.0000 0.72020  0.22446  0.59001  Biso   1.000  C 
  C45      1.0000 0.21168  0.79452  0.90857  Biso   1.000  C 
  C46      1.0000 0.71189  0.71221  0.40997  Biso   1.000  C 
  C47      1.0000 0.22038  0.28214  0.09133  Biso   1.000  C 
  C48      1.0000 0.17369  0.32627  0.07885  Biso   1.000  C 
  C49      1.0000 0.57549  0.07945  0.56726  Biso   1.000  C 
  C50      1.0000 0.07549  0.57945  0.56733  Biso   1.000  C 
  C51      1.0000 0.86232  0.36222  0.63932  Biso   1.000  C 
  C52      1.0000 0.66640  0.25033  0.89238  Biso   1.000  C 
  C53      1.0000 0.64617  0.19182  0.72521  Biso   1.000  C 
  C54      1.0000 0.07559  0.42692  0.06806  Biso   1.000  C 
  C55      1.0000 0.22020  0.72446  0.59003  Biso   1.000  C 
  C56      1.0000 0.71167  0.29451  0.90854  Biso   1.000  C 
  C57      1.0000 0.17352  0.68030  0.57761  Biso   1.000  C 
  C58      1.0000 0.59837  0.86180  0.21232  Biso   1.000  C 
  C59      1.0000 0.38523  0.07911  0.28450  Biso   1.000  C 
  C60      1.0000 0.89655  0.65191  0.01391  Biso   1.000  C 
  C61      1.0000 0.64635  0.81479  0.22640  Biso   1.000  C 
  C62      1.0000 0.89664  0.35405  0.51418  Biso   1.000  C 
  C63      1.0000 0.66661  0.75635  0.39372  Biso   1.000  C 
  C64      1.0000 0.86237  0.64405  0.13973  Biso   1.000  C 
  H1       1.0000 0.06600  0.69425  0.97093  Biso   1.000  H 
  H2       1.0000 0.14599  0.24659  0.51214  Biso   1.000  H 
  H3       1.0000 0.22673  0.16814  0.54018  Biso   1.000  H 
  H4       1.0000 0.89483  0.31212  0.38108  Biso   1.000  H 
  H5       1.0000 0.64599  0.74664  0.51202  Biso   1.000  H 
  H6       1.0000 0.56603  0.81201  0.47132  Biso   1.000  H 
  H7       1.0000 0.80115  0.37131  0.90231  Biso   1.000  H 
  H8       1.0000 0.87255  0.55131  0.41238  Biso   1.000  H 
  H9       1.0000 0.08817  0.55160  0.43954  Biso   1.000  H 
  H10      1.0000 0.06603  0.31202  0.47150  Biso   1.000  H 
  H11      1.0000 0.37256  0.05130  0.41234  Biso   1.000  H 
  H12      1.0000 0.31460  0.74747  0.33887  Biso   1.000  H 
  H13      1.0000 0.23378  0.66921  0.31036  Biso   1.000  H 
  H14      1.0000 0.15936  0.37046  0.94848  Biso   1.000  H 
  H15      1.0000 0.72650  0.33856  0.03859  Biso   1.000  H 
  H16      1.0000 0.65937  0.87047  0.94834  Biso   1.000  H 
  H17      1.0000 0.64579  0.26001  0.01072  Biso   1.000  H 
  H18      1.0000 0.58832  0.95491  0.94034  Biso   1.000  H 
  H19      1.0000 0.72673  0.66821  0.54013  Biso   1.000  H 
  H20      1.0000 0.37231  0.95538  0.91103  Biso   1.000  H 
  H21      1.0000 0.73378  0.16921  0.31033  Biso   1.000  H 
  H22      1.0000 0.23388  0.33730  0.81142  Biso   1.000  H 
  H23      1.0000 0.39463  0.19363  0.88034  Biso   1.000  H 
  H24      1.0000 0.73390  0.83730  0.81132  Biso   1.000  H 
  H25      1.0000 0.14580  0.76001  0.01079  Biso   1.000  H 
  H26      1.0000 0.81465  0.75889  0.83950  Biso   1.000  H 
  H27      1.0000 0.08831  0.45487  0.94044  Biso   1.000  H 
  H28      1.0000 0.89465  0.69362  0.88039  Biso   1.000  H 
  H29      1.0000 0.15921  0.63605  0.44737  Biso   1.000  H 
  H30      1.0000 0.80135  0.63526  0.40349  Biso   1.000  H 
  H31      1.0000 0.87230  0.45535  0.91111  Biso   1.000  H 
  H32      1.0000 0.31463  0.25890  0.83953  Biso   1.000  H 
  H33      1.0000 0.58817  0.05159  0.43950  Biso   1.000  H 
  H34      1.0000 0.65920  0.13607  0.44730  Biso   1.000  H 
  H35      1.0000 0.39482  0.81210  0.38101  Biso   1.000  H 
  H36      1.0000 0.56598  0.19427  0.97078  Biso   1.000  H 
  H37      1.0000 0.81461  0.24747  0.33890  Biso   1.000  H 
  H38      1.0000 0.22650  0.83856  0.03861  Biso   1.000  H 
  H39      1.0000 0.30115  0.87131  0.90230  Biso   1.000  H 
  H40      1.0000 0.30134  0.13521  0.40349  Biso   1.000  H 
  N1       1.0000 0.42910  0.05105  0.24665  Biso   1.000  N 
  N2       1.0000 0.03173  0.55113  0.60577  Biso   1.000  N 
  N3       1.0000 0.43656  0.90946  0.58068  Biso   1.000  N 
  N4       1.0000 0.02435  0.59658  0.77193  Biso   1.000  N 
  N5       1.0000 0.53173  0.05112  0.60567  Biso   1.000  N 
  N6       1.0000 0.52433  0.90955  0.27194  Biso   1.000  N 
  N7       1.0000 0.03174  0.45508  0.10603  Biso   1.000  N 
  N8       1.0000 0.93656  0.40946  0.58078  Biso   1.000  N 
  N9       1.0000 0.43645  0.09646  0.08034  Biso   1.000  N 
  N10      1.0000 0.42907  0.95514  0.74641  Biso   1.000  N 
  N11      1.0000 0.02433  0.40954  0.27209  Biso   1.000  N 
  N12      1.0000 0.92908  0.45513  0.74653  Biso   1.000  N 
  N13      1.0000 0.93646  0.59646  0.08042  Biso   1.000  N 
  N14      1.0000 0.52434  0.09660  0.77179  Biso   1.000  N 
  N15      1.0000 0.92910  0.55105  0.24673  Biso   1.000  N 
  N16      1.0000 0.53174  0.95510  0.10590  Biso   1.000  N 
  Zn1      1.0000 0.48041  0.03649  0.92612  Biso   1.000  Zn
  Zn2      1.0000 0.98043  0.53646  0.92627  Biso   1.000  Zn
  Zn3      1.0000 0.48047  0.96971  0.42636  Biso   1.000  Zn
  Zn4      1.0000 0.98047  0.46973  0.42649  Biso   1.000  Zn
