data_image0
_cell_length_a       29.3896
_cell_length_b       6.90881
_cell_length_c       6.74754
_cell_angle_alpha    90.0058
_cell_angle_beta     94.1013
_cell_angle_gamma    90.0269

_symmetry_space_group_name_H-M    "P 1"
_symmetry_int_tables_number       1

loop_
  _symmetry_equiv_pos_as_xyz
  'x, y, z'

loop_
  _atom_site_label
  _atom_site_occupancy
  _atom_site_fract_x
  _atom_site_fract_y
  _atom_site_fract_z
  _atom_site_thermal_displace_type
  _atom_site_B_iso_or_equiv
  _atom_site_type_symbol
  C1       1.0000 0.59449  0.24185  0.67921  Biso   1.000  C 
  C2       1.0000 0.66527  0.32912  0.88901  Biso   1.000  C 
  C3       1.0000 0.89936  0.21965  0.53945  Biso   1.000  C 
  C4       1.0000 0.89021  0.37230  0.82171  Biso   1.000  C 
  C5       1.0000 0.39022  0.87233  0.82167  Biso   1.000  C 
  C6       1.0000 0.29537  0.32852  0.96220  Biso   1.000  C 
  C7       1.0000 0.09464  0.26471  0.17934  Biso   1.000  C 
  C8       1.0000 0.31659  0.26547  0.14749  Biso   1.000  C 
  C9       1.0000 0.16540  0.17831  0.38947  Biso   1.000  C 
  C10      1.0000 0.67191  0.79387  0.05426  Biso   1.000  C 
  C11      1.0000 0.71995  0.78580  0.08230  Biso   1.000  C 
  C12      1.0000 0.74868  0.83814  0.93075  Biso   1.000  C 
  C13      1.0000 0.24083  0.22137  0.26936  Biso   1.000  C 
  C14      1.0000 0.28887  0.21309  0.29735  Biso   1.000  C 
  C15      1.0000 0.09449  0.74175  0.67922  Biso   1.000  C 
  C16      1.0000 0.57041  0.87270  0.02954  Biso   1.000  C 
  C17      1.0000 0.79539  0.82854  0.96218  Biso   1.000  C 
  C18      1.0000 0.39956  0.28602  0.03981  Biso   1.000  C 
  C19      1.0000 0.29517  0.67793  0.46182  Biso   1.000  C 
  C20      1.0000 0.89028  0.63289  0.32169  Biso   1.000  C 
  C21      1.0000 0.78888  0.71313  0.29734  Biso   1.000  C 
  C22      1.0000 0.31642  0.74075  0.64720  Biso   1.000  C 
  C23      1.0000 0.74846  0.16901  0.43028  Biso   1.000  C 
  C24      1.0000 0.06109  0.78626  0.81167  Biso   1.000  C 
  C25      1.0000 0.28874  0.79364  0.79697  Biso   1.000  C 
  C26      1.0000 0.74084  0.72144  0.26935  Biso   1.000  C 
  C27      1.0000 0.74069  0.28585  0.76894  Biso   1.000  C 
  C28      1.0000 0.14419  0.24100  0.20403  Biso   1.000  C 
  C29      1.0000 0.06125  0.21973  0.31173  Biso   1.000  C 
  C30      1.0000 0.78873  0.29368  0.79699  Biso   1.000  C 
  C31      1.0000 0.24847  0.66893  0.43027  Biso   1.000  C 
  C32      1.0000 0.86613  0.74114  0.17202  Biso   1.000  C 
  C33      1.0000 0.81641  0.24077  0.64722  Biso   1.000  C 
  C34      1.0000 0.79516  0.17798  0.46184  Biso   1.000  C 
  C35      1.0000 0.24070  0.78577  0.76892  Biso   1.000  C 
  C36      1.0000 0.56108  0.28635  0.81164  Biso   1.000  C 
  C37      1.0000 0.24867  0.33810  0.93076  Biso   1.000  C 
  C38      1.0000 0.36612  0.24117  0.17202  Biso   1.000  C 
  C39      1.0000 0.21210  0.16909  0.42097  Biso   1.000  C 
  C40      1.0000 0.39937  0.71968  0.53942  Biso   1.000  C 
  C41      1.0000 0.16528  0.82900  0.88900  Biso   1.000  C 
  C42      1.0000 0.14403  0.76605  0.70371  Biso   1.000  C 
  C43      1.0000 0.67171  0.21362  0.55386  Biso   1.000  C 
  C44      1.0000 0.71975  0.22160  0.58187  Biso   1.000  C 
  C45      1.0000 0.21198  0.83834  0.92046  Biso   1.000  C 
  C46      1.0000 0.71211  0.66920  0.42097  Biso   1.000  C 
  C47      1.0000 0.21994  0.28572  0.08231  Biso   1.000  C 
  C48      1.0000 0.17190  0.29375  0.05427  Biso   1.000  C 
  C49      1.0000 0.81660  0.76548  0.14748  Biso   1.000  C 
  C50      1.0000 0.07031  0.63351  0.52953  Biso   1.000  C 
  C51      1.0000 0.56125  0.71985  0.31168  Biso   1.000  C 
  C52      1.0000 0.89957  0.78597  0.03982  Biso   1.000  C 
  C53      1.0000 0.57031  0.13362  0.52951  Biso   1.000  C 
  C54      1.0000 0.66541  0.67846  0.38946  Biso   1.000  C 
  C55      1.0000 0.39028  0.13293  0.32168  Biso   1.000  C 
  C56      1.0000 0.59465  0.76487  0.17931  Biso   1.000  C 
  C57      1.0000 0.64419  0.74115  0.20402  Biso   1.000  C 
  C58      1.0000 0.71197  0.33843  0.92047  Biso   1.000  C 
  C59      1.0000 0.21976  0.72150  0.58186  Biso   1.000  C 
  C60      1.0000 0.64402  0.26617  0.70372  Biso   1.000  C 
  C61      1.0000 0.86597  0.26448  0.67187  Biso   1.000  C 
  C62      1.0000 0.17172  0.71349  0.55385  Biso   1.000  C 
  C63      1.0000 0.36597  0.76449  0.67183  Biso   1.000  C 
  C64      1.0000 0.07040  0.37253  0.02957  Biso   1.000  C 
  H1       1.0000 0.64419  0.36920  0.00896  Biso   1.000  H 
  H2       1.0000 0.89636  0.13970  0.40040  Biso   1.000  H 
  H3       1.0000 0.72752  0.38669  0.06341  Biso   1.000  H 
  H4       1.0000 0.56425  0.63978  0.45062  Biso   1.000  H 
  H5       1.0000 0.37803  0.93784  0.95401  Biso   1.000  H 
  H6       1.0000 0.80369  0.34334  0.94077  Biso   1.000  H 
  H7       1.0000 0.14429  0.13832  0.50935  Biso   1.000  H 
  H8       1.0000 0.87804  0.56726  0.45386  Biso   1.000  H 
  H9       1.0000 0.65697  0.84348  0.91047  Biso   1.000  H 
  H10      1.0000 0.06424  0.13969  0.45069  Biso   1.000  H 
  H11      1.0000 0.37804  0.06728  0.45386  Biso   1.000  H 
  H12      1.0000 0.31627  0.63771  0.34199  Biso   1.000  H 
  H13      1.0000 0.23293  0.62079  0.28730  Biso   1.000  H 
  H14      1.0000 0.15695  0.34337  0.91048  Biso   1.000  H 
  H15      1.0000 0.72762  0.62108  0.56396  Biso   1.000  H 
  H16      1.0000 0.08252  0.56801  0.39723  Biso   1.000  H 
  H17      1.0000 0.64429  0.63848  0.50933  Biso   1.000  H 
  H18      1.0000 0.22762  0.12097  0.56396  Biso   1.000  H 
  H19      1.0000 0.06403  0.86646  0.95056  Biso   1.000  H 
  H20      1.0000 0.58258  0.93835  0.89724  Biso   1.000  H 
  H21      1.0000 0.23315  0.38644  0.78785  Biso   1.000  H 
  H22      1.0000 0.73316  0.88648  0.78784  Biso   1.000  H 
  H23      1.0000 0.30382  0.16341  0.44114  Biso   1.000  H 
  H24      1.0000 0.22753  0.88662  0.06339  Biso   1.000  H 
  H25      1.0000 0.08257  0.43817  0.89725  Biso   1.000  H 
  H26      1.0000 0.73292  0.12087  0.28731  Biso   1.000  H 
  H27      1.0000 0.89666  0.86631  0.90102  Biso   1.000  H 
  H28      1.0000 0.15676  0.66384  0.41006  Biso   1.000  H 
  H29      1.0000 0.14419  0.86907  0.00895  Biso   1.000  H 
  H30      1.0000 0.80382  0.66346  0.44113  Biso   1.000  H 
  H31      1.0000 0.39665  0.36634  0.90101  Biso   1.000  H 
  H32      1.0000 0.31648  0.36847  0.84226  Biso   1.000  H 
  H33      1.0000 0.58252  0.06812  0.39720  Biso   1.000  H 
  H34      1.0000 0.65675  0.16397  0.41007  Biso   1.000  H 
  H35      1.0000 0.39638  0.63974  0.40036  Biso   1.000  H 
  H36      1.0000 0.56401  0.36655  0.95053  Biso   1.000  H 
  H37      1.0000 0.30370  0.84332  0.94074  Biso   1.000  H 
  H38      1.0000 0.87803  0.43782  0.95405  Biso   1.000  H 
  H39      1.0000 0.81625  0.13774  0.34201  Biso   1.000  H 
  H40      1.0000 0.81649  0.86845  0.84224  Biso   1.000  H 
  N1       1.0000 0.43981  0.80035  0.60334  Biso   1.000  N 
  N2       1.0000 0.52682  0.10962  0.57372  Biso   1.000  N 
  N3       1.0000 0.43379  0.10923  0.27762  Biso   1.000  N 
  N4       1.0000 0.52082  0.80040  0.24782  Biso   1.000  N 
  N5       1.0000 0.02682  0.60953  0.57377  Biso   1.000  N 
  N6       1.0000 0.02070  0.70503  0.74791  Biso   1.000  N 
  N7       1.0000 0.93980  0.30028  0.60338  Biso   1.000  N 
  N8       1.0000 0.02689  0.39584  0.07371  Biso   1.000  N 
  N9       1.0000 0.52069  0.20513  0.74785  Biso   1.000  N 
  N10      1.0000 0.52689  0.89599  0.07367  Biso   1.000  N 
  N11      1.0000 0.93995  0.70492  0.10368  Biso   1.000  N 
  N12      1.0000 0.93379  0.60916  0.27764  Biso   1.000  N 
  N13      1.0000 0.02081  0.30030  0.24788  Biso   1.000  N 
  N14      1.0000 0.43994  0.20499  0.10366  Biso   1.000  N 
  N15      1.0000 0.93373  0.39572  0.77761  Biso   1.000  N 
  N16      1.0000 0.43373  0.89579  0.77757  Biso   1.000  N 
  Zn1      1.0000 0.48029  0.06561  0.92566  Biso   1.000  Zn
  Zn2      1.0000 0.98029  0.56548  0.92572  Biso   1.000  Zn
  Zn3      1.0000 0.48037  0.93943  0.42555  Biso   1.000  Zn
  Zn4      1.0000 0.98037  0.43935  0.42559  Biso   1.000  Zn
