data_image0
_cell_length_a       29.376
_cell_length_b       7.13969
_cell_length_c       6.81971
_cell_angle_alpha    89.9962
_cell_angle_beta     94.198
_cell_angle_gamma    90.0228

_symmetry_space_group_name_H-M    "P 1"
_symmetry_int_tables_number       1

loop_
  _symmetry_equiv_pos_as_xyz
  'x, y, z'

loop_
  _atom_site_label
  _atom_site_occupancy
  _atom_site_fract_x
  _atom_site_fract_y
  _atom_site_fract_z
  _atom_site_thermal_displace_type
  _atom_site_B_iso_or_equiv
  _atom_site_type_symbol
  C1       1.0000 0.59434  0.23590  0.67950  Biso   1.000  C 
  C2       1.0000 0.56092  0.27669  0.81106  Biso   1.000  C 
  C3       1.0000 0.24896  0.34233  0.93597  Biso   1.000  C 
  C4       1.0000 0.36627  0.23576  0.17187  Biso   1.000  C 
  C5       1.0000 0.21196  0.16497  0.41524  Biso   1.000  C 
  C6       1.0000 0.81680  0.76347  0.14843  Biso   1.000  C 
  C7       1.0000 0.39935  0.72925  0.53985  Biso   1.000  C 
  C8       1.0000 0.16497  0.83132  0.88410  Biso   1.000  C 
  C9       1.0000 0.14383  0.76345  0.70299  Biso   1.000  C 
  C10      1.0000 0.67169  0.20976  0.55647  Biso   1.000  C 
  C11      1.0000 0.71976  0.21983  0.58401  Biso   1.000  C 
  C12      1.0000 0.21170  0.84225  0.91534  Biso   1.000  C 
  C13      1.0000 0.71196  0.66502  0.41523  Biso   1.000  C 
  C14      1.0000 0.22006  0.28750  0.08388  Biso   1.000  C 
  C15      1.0000 0.17198  0.29749  0.05626  Biso   1.000  C 
  C16      1.0000 0.56126  0.72946  0.31122  Biso   1.000  C 
  C17      1.0000 0.07028  0.62998  0.53161  Biso   1.000  C 
  C18      1.0000 0.36601  0.77052  0.67161  Biso   1.000  C 
  C19      1.0000 0.17169  0.70967  0.55646  Biso   1.000  C 
  C20      1.0000 0.86600  0.27050  0.67161  Biso   1.000  C 
  C21      1.0000 0.64383  0.26354  0.70300  Biso   1.000  C 
  C22      1.0000 0.21976  0.71977  0.58399  Biso   1.000  C 
  C23      1.0000 0.71170  0.34230  0.91537  Biso   1.000  C 
  C24      1.0000 0.07042  0.37595  0.03155  Biso   1.000  C 
  C25      1.0000 0.59461  0.77089  0.17951  Biso   1.000  C 
  C26      1.0000 0.39035  0.13013  0.31986  Biso   1.000  C 
  C27      1.0000 0.64412  0.74379  0.20282  Biso   1.000  C 
  C28      1.0000 0.66524  0.67597  0.38395  Biso   1.000  C 
  C29      1.0000 0.57028  0.13007  0.53163  Biso   1.000  C 
  C30      1.0000 0.89967  0.77631  0.04007  Biso   1.000  C 
  C31      1.0000 0.79533  0.17557  0.46725  Biso   1.000  C 
  C32      1.0000 0.24057  0.78739  0.76735  Biso   1.000  C 
  C33      1.0000 0.86628  0.73575  0.17187  Biso   1.000  C 
  C34      1.0000 0.24861  0.66475  0.43602  Biso   1.000  C 
  C35      1.0000 0.66497  0.33139  0.88412  Biso   1.000  C 
  C36      1.0000 0.89934  0.22921  0.53986  Biso   1.000  C 
  C37      1.0000 0.89021  0.37567  0.81959  Biso   1.000  C 
  C38      1.0000 0.39022  0.87571  0.81958  Biso   1.000  C 
  C39      1.0000 0.29569  0.33138  0.96732  Biso   1.000  C 
  C40      1.0000 0.09461  0.27076  0.17952  Biso   1.000  C 
  C41      1.0000 0.31679  0.26346  0.14843  Biso   1.000  C 
  C42      1.0000 0.16523  0.17588  0.38395  Biso   1.000  C 
  C43      1.0000 0.67199  0.79759  0.05626  Biso   1.000  C 
  C44      1.0000 0.72007  0.78756  0.08387  Biso   1.000  C 
  C45      1.0000 0.74897  0.84237  0.93597  Biso   1.000  C 
  C46      1.0000 0.24084  0.21990  0.26730  Biso   1.000  C 
  C47      1.0000 0.28890  0.20970  0.29491  Biso   1.000  C 
  C48      1.0000 0.09434  0.73579  0.67949  Biso   1.000  C 
  C49      1.0000 0.57043  0.87612  0.03157  Biso   1.000  C 
  C50      1.0000 0.79569  0.83141  0.96732  Biso   1.000  C 
  C51      1.0000 0.39966  0.27636  0.04007  Biso   1.000  C 
  C52      1.0000 0.29534  0.67555  0.46725  Biso   1.000  C 
  C53      1.0000 0.89036  0.63012  0.31987  Biso   1.000  C 
  C54      1.0000 0.78890  0.70972  0.29489  Biso   1.000  C 
  C55      1.0000 0.31650  0.74341  0.64832  Biso   1.000  C 
  C56      1.0000 0.74860  0.16480  0.43603  Biso   1.000  C 
  C57      1.0000 0.06093  0.77656  0.81107  Biso   1.000  C 
  C58      1.0000 0.28865  0.79738  0.79487  Biso   1.000  C 
  C59      1.0000 0.74084  0.71994  0.26728  Biso   1.000  C 
  C60      1.0000 0.74057  0.28744  0.76737  Biso   1.000  C 
  C61      1.0000 0.14411  0.24368  0.20283  Biso   1.000  C 
  C62      1.0000 0.81649  0.24342  0.64832  Biso   1.000  C 
  C63      1.0000 0.06125  0.22936  0.31124  Biso   1.000  C 
  C64      1.0000 0.78865  0.29741  0.79488  Biso   1.000  C 
  H1       1.0000 0.22712  0.89342  0.05545  Biso   1.000  H 
  H2       1.0000 0.08252  0.43874  0.90016  Biso   1.000  H 
  H3       1.0000 0.73316  0.11345  0.29603  Biso   1.000  H 
  H4       1.0000 0.89680  0.85330  0.90227  Biso   1.000  H 
  H5       1.0000 0.39679  0.35335  0.90227  Biso   1.000  H 
  H6       1.0000 0.15684  0.65638  0.41599  Biso   1.000  H 
  H7       1.0000 0.14381  0.87367  0.00118  Biso   1.000  H 
  H8       1.0000 0.80372  0.65633  0.43538  Biso   1.000  H 
  H9       1.0000 0.81648  0.13290  0.35025  Biso   1.000  H 
  H10      1.0000 0.31686  0.37376  0.85029  Biso   1.000  H 
  H11      1.0000 0.58249  0.06754  0.40035  Biso   1.000  H 
  H12      1.0000 0.65684  0.15649  0.41600  Biso   1.000  H 
  H13      1.0000 0.39639  0.65222  0.40208  Biso   1.000  H 
  H14      1.0000 0.56378  0.35387  0.94875  Biso   1.000  H 
  H15      1.0000 0.23357  0.39354  0.79583  Biso   1.000  H 
  H16      1.0000 0.30352  0.85065  0.93532  Biso   1.000  H 
  H17      1.0000 0.87811  0.43832  0.95103  Biso   1.000  H 
  H18      1.0000 0.81687  0.87377  0.85028  Biso   1.000  H 
  H19      1.0000 0.73358  0.89359  0.79582  Biso   1.000  H 
  H20      1.0000 0.30372  0.15635  0.43540  Biso   1.000  H 
  H21      1.0000 0.58254  0.93895  0.90020  Biso   1.000  H 
  H22      1.0000 0.22737  0.11366  0.55528  Biso   1.000  H 
  H23      1.0000 0.64381  0.37373  0.00122  Biso   1.000  H 
  H24      1.0000 0.72712  0.39344  0.05548  Biso   1.000  H 
  H25      1.0000 0.56422  0.65238  0.44897  Biso   1.000  H 
  H26      1.0000 0.37811  0.93836  0.95101  Biso   1.000  H 
  H27      1.0000 0.80353  0.35067  0.93533  Biso   1.000  H 
  H28      1.0000 0.14407  0.13345  0.50101  Biso   1.000  H 
  H29      1.0000 0.89638  0.15221  0.40207  Biso   1.000  H 
  H30      1.0000 0.87818  0.56782  0.45138  Biso   1.000  H 
  H31      1.0000 0.06379  0.85370  0.94878  Biso   1.000  H 
  H32      1.0000 0.06421  0.15232  0.44902  Biso   1.000  H 
  H33      1.0000 0.37818  0.06780  0.45136  Biso   1.000  H 
  H34      1.0000 0.31649  0.63289  0.35024  Biso   1.000  H 
  H35      1.0000 0.23317  0.61340  0.29602  Biso   1.000  H 
  H36      1.0000 0.15713  0.35059  0.91574  Biso   1.000  H 
  H37      1.0000 0.65714  0.85069  0.91573  Biso   1.000  H 
  H38      1.0000 0.72737  0.61369  0.55526  Biso   1.000  H 
  H39      1.0000 0.08249  0.56746  0.40032  Biso   1.000  H 
  H40      1.0000 0.64407  0.63356  0.50100  Biso   1.000  H 
  N1       1.0000 0.52068  0.19634  0.74842  Biso   1.000  N 
  N2       1.0000 0.93366  0.40016  0.77542  Biso   1.000  N 
  N3       1.0000 0.43990  0.19606  0.10264  Biso   1.000  N 
  N4       1.0000 0.02091  0.30884  0.24865  Biso   1.000  N 
  N5       1.0000 0.93376  0.60468  0.27557  Biso   1.000  N 
  N6       1.0000 0.93991  0.69600  0.10265  Biso   1.000  N 
  N7       1.0000 0.52698  0.90050  0.07575  Biso   1.000  N 
  N8       1.0000 0.43366  0.90023  0.77541  Biso   1.000  N 
  N9       1.0000 0.02697  0.40035  0.07574  Biso   1.000  N 
  N10      1.0000 0.02069  0.69622  0.74844  Biso   1.000  N 
  N11      1.0000 0.43970  0.80874  0.60250  Biso   1.000  N 
  N12      1.0000 0.52686  0.10474  0.57571  Biso   1.000  N 
  N13      1.0000 0.43376  0.10472  0.27555  Biso   1.000  N 
  N14      1.0000 0.93969  0.30867  0.60250  Biso   1.000  N 
  N15      1.0000 0.02687  0.60465  0.57572  Biso   1.000  N 
  N16      1.0000 0.52092  0.80893  0.24863  Biso   1.000  N 
  Zn1      1.0000 0.98034  0.56227  0.92560  Biso   1.000  Zn
  Zn2      1.0000 0.48030  0.94201  0.42569  Biso   1.000  Zn
  Zn3      1.0000 0.48034  0.06236  0.92558  Biso   1.000  Zn
  Zn4      1.0000 0.98030  0.44196  0.42567  Biso   1.000  Zn
