data_image0
_cell_length_a       24.9357
_cell_length_b       18.5764
_cell_length_c       6.86561
_cell_angle_alpha    90.0831
_cell_angle_beta     106.708
_cell_angle_gamma    90.0046

_symmetry_space_group_name_H-M    "P 1"
_symmetry_int_tables_number       1

loop_
  _symmetry_equiv_pos_as_xyz
  'x, y, z'

loop_
  _atom_site_label
  _atom_site_occupancy
  _atom_site_fract_x
  _atom_site_fract_y
  _atom_site_fract_z
  _atom_site_thermal_displace_type
  _atom_site_B_iso_or_equiv
  _atom_site_type_symbol
  C1       1.0000 0.60055  0.13469  0.71676  Biso   1.000  C 
  C2       1.0000 0.20732  0.22627  0.40125  Biso   1.000  C 
  C3       1.0000 0.81255  0.68231  0.12128  Biso   1.000  C 
  C4       1.0000 0.56479  0.87622  0.34268  Biso   1.000  C 
  C5       1.0000 0.36129  0.87201  0.63760  Biso   1.000  C 
  C6       1.0000 0.57889  0.08054  0.57168  Biso   1.000  C 
  C7       1.0000 0.39578  0.87609  0.50778  Biso   1.000  C 
  C8       1.0000 0.16513  0.73356  0.89201  Biso   1.000  C 
  C9       1.0000 0.14778  0.68299  0.72943  Biso   1.000  C 
  C10      1.0000 0.67711  0.18108  0.58517  Biso   1.000  C 
  C11      1.0000 0.72288  0.22741  0.59620  Biso   1.000  C 
  C12      1.0000 0.20947  0.77943  0.90699  Biso   1.000  C 
  C13      1.0000 0.70733  0.72628  0.40126  Biso   1.000  C 
  C14      1.0000 0.22086  0.27788  0.09064  Biso   1.000  C 
  C15      1.0000 0.17539  0.32464  0.08020  Biso   1.000  C 
  C16      1.0000 0.86129  0.37201  0.63761  Biso   1.000  C 
  C17      1.0000 0.07889  0.58053  0.57167  Biso   1.000  C 
  C18      1.0000 0.66334  0.77266  0.38712  Biso   1.000  C 
  C19      1.0000 0.89578  0.37609  0.50778  Biso   1.000  C 
  C20      1.0000 0.64627  0.82335  0.22518  Biso   1.000  C 
  C21      1.0000 0.89487  0.63075  0.00629  Biso   1.000  C 
  C22      1.0000 0.38121  0.07965  0.27834  Biso   1.000  C 
  C23      1.0000 0.59965  0.87249  0.21410  Biso   1.000  C 
  C24      1.0000 0.85978  0.63400  0.13411  Biso   1.000  C 
  C25      1.0000 0.70948  0.27942  0.90701  Biso   1.000  C 
  C26      1.0000 0.22288  0.72741  0.59621  Biso   1.000  C 
  C27      1.0000 0.17712  0.68107  0.58517  Biso   1.000  C 
  C28      1.0000 0.07887  0.42755  0.07162  Biso   1.000  C 
  C29      1.0000 0.64778  0.18299  0.72944  Biso   1.000  C 
  C30      1.0000 0.66513  0.23356  0.89203  Biso   1.000  C 
  C31      1.0000 0.79726  0.27237  0.46400  Biso   1.000  C 
  C32      1.0000 0.35977  0.13399  0.13409  Biso   1.000  C 
  C33      1.0000 0.88254  0.42664  0.78157  Biso   1.000  C 
  C34      1.0000 0.25313  0.72619  0.44961  Biso   1.000  C 
  C35      1.0000 0.38254  0.92664  0.78156  Biso   1.000  C 
  C36      1.0000 0.29526  0.23273  0.95870  Biso   1.000  C 
  C37      1.0000 0.57887  0.92755  0.07162  Biso   1.000  C 
  C38      1.0000 0.39486  0.13073  0.00627  Biso   1.000  C 
  C39      1.0000 0.06479  0.37622  0.34267  Biso   1.000  C 
  C40      1.0000 0.09965  0.37248  0.21409  Biso   1.000  C 
  C41      1.0000 0.31253  0.18230  0.12124  Biso   1.000  C 
  C42      1.0000 0.16334  0.27265  0.38711  Biso   1.000  C 
  C43      1.0000 0.67540  0.82465  0.08023  Biso   1.000  C 
  C44      1.0000 0.72087  0.77789  0.09067  Biso   1.000  C 
  C45      1.0000 0.75113  0.77889  0.94413  Biso   1.000  C 
  C46      1.0000 0.23758  0.22724  0.25467  Biso   1.000  C 
  C47      1.0000 0.28320  0.18068  0.26558  Biso   1.000  C 
  C48      1.0000 0.10055  0.63469  0.71676  Biso   1.000  C 
  C49      1.0000 0.88122  0.57966  0.27835  Biso   1.000  C 
  C50      1.0000 0.79528  0.73275  0.95873  Biso   1.000  C 
  C51      1.0000 0.14627  0.32334  0.22516  Biso   1.000  C 
  C52      1.0000 0.56582  0.13105  0.84580  Biso   1.000  C 
  C53      1.0000 0.73977  0.27809  0.76053  Biso   1.000  C 
  C54      1.0000 0.78538  0.32466  0.77121  Biso   1.000  C 
  C55      1.0000 0.73759  0.72725  0.25470  Biso   1.000  C 
  C56      1.0000 0.28538  0.82466  0.77121  Biso   1.000  C 
  C57      1.0000 0.81450  0.32308  0.62624  Biso   1.000  C 
  C58      1.0000 0.75313  0.22620  0.44961  Biso   1.000  C 
  C59      1.0000 0.31451  0.82308  0.62623  Biso   1.000  C 
  C60      1.0000 0.29726  0.77237  0.46400  Biso   1.000  C 
  C61      1.0000 0.06582  0.63105  0.84579  Biso   1.000  C 
  C62      1.0000 0.25112  0.27888  0.94410  Biso   1.000  C 
  C63      1.0000 0.78321  0.68069  0.26560  Biso   1.000  C 
  C64      1.0000 0.23977  0.77809  0.76053  Biso   1.000  C 
  H1       1.0000 0.73876  0.81684  0.81787  Biso   1.000  H 
  H2       1.0000 0.14289  0.73605  0.00740  Biso   1.000  H 
  H3       1.0000 0.81744  0.73490  0.84307  Biso   1.000  H 
  H4       1.0000 0.09254  0.44490  0.94254  Biso   1.000  H 
  H5       1.0000 0.86932  0.44360  0.91208  Biso   1.000  H 
  H6       1.0000 0.89419  0.66238  0.87275  Biso   1.000  H 
  H7       1.0000 0.16514  0.64299  0.45874  Biso   1.000  H 
  H8       1.0000 0.79511  0.64274  0.39206  Biso   1.000  H 
  H9       1.0000 0.29726  0.86282  0.89755  Biso   1.000  H 
  H10      1.0000 0.31743  0.23489  0.84304  Biso   1.000  H 
  H11      1.0000 0.59207  0.06354  0.44108  Biso   1.000  H 
  H12      1.0000 0.66513  0.14300  0.45873  Biso   1.000  H 
  H13      1.0000 0.39498  0.84456  0.37362  Biso   1.000  H 
  H14      1.0000 0.56676  0.16243  0.98034  Biso   1.000  H 
  H15      1.0000 0.74069  0.18819  0.32318  Biso   1.000  H 
  H16      1.0000 0.81938  0.27009  0.34826  Biso   1.000  H 
  H17      1.0000 0.22199  0.81740  0.03350  Biso   1.000  H 
  H18      1.0000 0.29510  0.14273  0.39206  Biso   1.000  H 
  H19      1.0000 0.23875  0.31683  0.81784  Biso   1.000  H 
  H20      1.0000 0.39418  0.16237  0.87273  Biso   1.000  H 
  H21      1.0000 0.36932  0.94360  0.91207  Biso   1.000  H 
  H22      1.0000 0.59255  0.94490  0.94254  Biso   1.000  H 
  H23      1.0000 0.06677  0.66242  0.98033  Biso   1.000  H 
  H24      1.0000 0.21967  0.18835  0.52760  Biso   1.000  H 
  H25      1.0000 0.89498  0.34456  0.37362  Biso   1.000  H 
  H26      1.0000 0.64122  0.77060  0.50288  Biso   1.000  H 
  H27      1.0000 0.56515  0.84435  0.47555  Biso   1.000  H 
  H28      1.0000 0.79727  0.36282  0.89757  Biso   1.000  H 
  H29      1.0000 0.14121  0.27060  0.50287  Biso   1.000  H 
  H30      1.0000 0.86772  0.56233  0.40784  Biso   1.000  H 
  H31      1.0000 0.71968  0.68835  0.52761  Biso   1.000  H 
  H32      1.0000 0.06514  0.34435  0.47554  Biso   1.000  H 
  H33      1.0000 0.36771  0.06232  0.40784  Biso   1.000  H 
  H34      1.0000 0.31938  0.77008  0.34827  Biso   1.000  H 
  H35      1.0000 0.24069  0.68818  0.32317  Biso   1.000  H 
  H36      1.0000 0.16356  0.36270  0.95396  Biso   1.000  H 
  H37      1.0000 0.09207  0.56354  0.44108  Biso   1.000  H 
  H38      1.0000 0.72199  0.31739  0.03352  Biso   1.000  H 
  H39      1.0000 0.66357  0.86271  0.95398  Biso   1.000  H 
  H40      1.0000 0.64290  0.23604  0.00743  Biso   1.000  H 
  N1       1.0000 0.43391  0.07903  0.07096  Biso   1.000  N 
  N2       1.0000 0.92515  0.54716  0.23842  Biso   1.000  N 
  N3       1.0000 0.52676  0.07928  0.78094  Biso   1.000  N 
  N4       1.0000 0.93392  0.57903  0.07097  Biso   1.000  N 
  N5       1.0000 0.92584  0.46004  0.73979  Biso   1.000  N 
  N6       1.0000 0.02643  0.42884  0.27984  Biso   1.000  N 
  N7       1.0000 0.42584  0.96004  0.73978  Biso   1.000  N 
  N8       1.0000 0.53548  0.96085  0.11308  Biso   1.000  N 
  N9       1.0000 0.93436  0.42851  0.57131  Biso   1.000  N 
  N10      1.0000 0.52644  0.92884  0.27983  Biso   1.000  N 
  N11      1.0000 0.42515  0.04716  0.23841  Biso   1.000  N 
  N12      1.0000 0.03518  0.54779  0.61224  Biso   1.000  N 
  N13      1.0000 0.43436  0.92851  0.57131  Biso   1.000  N 
  N14      1.0000 0.03548  0.46086  0.11308  Biso   1.000  N 
  N15      1.0000 0.53517  0.04779  0.61224  Biso   1.000  N 
  N16      1.0000 0.02676  0.57928  0.78093  Biso   1.000  N 
  Zn1      1.0000 0.98050  0.52755  0.92611  Biso   1.000  Zn
  Zn2      1.0000 0.48033  0.98067  0.42581  Biso   1.000  Zn
  Zn3      1.0000 0.48051  0.02755  0.92610  Biso   1.000  Zn
  Zn4      1.0000 0.98034  0.48067  0.42581  Biso   1.000  Zn
