data_image0
_cell_length_a       29.3752
_cell_length_b       6.69321
_cell_length_c       6.65676
_cell_angle_alpha    89.9038
_cell_angle_beta     93.3194
_cell_angle_gamma    90.0491

_symmetry_space_group_name_H-M    "P 1"
_symmetry_int_tables_number       1

loop_
  _symmetry_equiv_pos_as_xyz
  'x, y, z'

loop_
  _atom_site_label
  _atom_site_occupancy
  _atom_site_fract_x
  _atom_site_fract_y
  _atom_site_fract_z
  _atom_site_thermal_displace_type
  _atom_site_B_iso_or_equiv
  _atom_site_type_symbol
  C1       1.0000 0.59453  0.24696  0.67361  Biso   1.000  C 
  C2       1.0000 0.66436  0.32556  0.89124  Biso   1.000  C 
  C3       1.0000 0.90015  0.20674  0.54705  Biso   1.000  C 
  C4       1.0000 0.88993  0.37459  0.82668  Biso   1.000  C 
  C5       1.0000 0.38996  0.87450  0.82662  Biso   1.000  C 
  C6       1.0000 0.29618  0.32476  0.95899  Biso   1.000  C 
  C7       1.0000 0.09440  0.26006  0.17436  Biso   1.000  C 
  C8       1.0000 0.31654  0.26635  0.14934  Biso   1.000  C 
  C9       1.0000 0.16429  0.18095  0.39176  Biso   1.000  C 
  C10      1.0000 0.67229  0.79145  0.04949  Biso   1.000  C 
  C11      1.0000 0.72022  0.78418  0.07973  Biso   1.000  C 
  C12      1.0000 0.74965  0.83370  0.92571  Biso   1.000  C 
  C13      1.0000 0.24027  0.22164  0.27104  Biso   1.000  C 
  C14      1.0000 0.28820  0.21454  0.30129  Biso   1.000  C 
  C15      1.0000 0.09456  0.74661  0.67363  Biso   1.000  C 
  C16      1.0000 0.57071  0.87532  0.02529  Biso   1.000  C 
  C17      1.0000 0.79621  0.82493  0.95910  Biso   1.000  C 
  C18      1.0000 0.40002  0.29985  0.04566  Biso   1.000  C 
  C19      1.0000 0.29640  0.68041  0.46032  Biso   1.000  C 
  C20      1.0000 0.88983  0.63169  0.32588  Biso   1.000  C 
  C21      1.0000 0.78822  0.71463  0.30136  Biso   1.000  C 
  C22      1.0000 0.31671  0.73914  0.65051  Biso   1.000  C 
  C23      1.0000 0.74981  0.17184  0.42665  Biso   1.000  C 
  C24      1.0000 0.06063  0.80010  0.80446  Biso   1.000  C 
  C25      1.0000 0.28833  0.79101  0.80203  Biso   1.000  C 
  C26      1.0000 0.74029  0.72180  0.27108  Biso   1.000  C 
  C27      1.0000 0.74037  0.28413  0.77147  Biso   1.000  C 
  C28      1.0000 0.14391  0.23946  0.20147  Biso   1.000  C 
  C29      1.0000 0.06042  0.20694  0.30539  Biso   1.000  C 
  C30      1.0000 0.78830  0.29118  0.80210  Biso   1.000  C 
  C31      1.0000 0.24985  0.67168  0.42657  Biso   1.000  C 
  C32      1.0000 0.86608  0.74634  0.17672  Biso   1.000  C 
  C33      1.0000 0.81668  0.23926  0.65058  Biso   1.000  C 
  C34      1.0000 0.79637  0.18051  0.46040  Biso   1.000  C 
  C35      1.0000 0.24040  0.78391  0.77141  Biso   1.000  C 
  C36      1.0000 0.56059  0.30040  0.80442  Biso   1.000  C 
  C37      1.0000 0.24962  0.33350  0.92566  Biso   1.000  C 
  C38      1.0000 0.36605  0.24628  0.17658  Biso   1.000  C 
  C39      1.0000 0.21085  0.17208  0.42510  Biso   1.000  C 
  C40      1.0000 0.40018  0.70673  0.54693  Biso   1.000  C 
  C41      1.0000 0.16439  0.82518  0.89123  Biso   1.000  C 
  C42      1.0000 0.14408  0.76655  0.70101  Biso   1.000  C 
  C43      1.0000 0.67242  0.21474  0.54957  Biso   1.000  C 
  C44      1.0000 0.72035  0.22173  0.58022  Biso   1.000  C 
  C45      1.0000 0.21095  0.83375  0.92501  Biso   1.000  C 
  C46      1.0000 0.71086  0.67224  0.42510  Biso   1.000  C 
  C47      1.0000 0.22020  0.28395  0.07969  Biso   1.000  C 
  C48      1.0000 0.17226  0.29114  0.04948  Biso   1.000  C 
  C49      1.0000 0.81657  0.76648  0.14945  Biso   1.000  C 
  C50      1.0000 0.07075  0.63209  0.52481  Biso   1.000  C 
  C51      1.0000 0.56043  0.70721  0.30533  Biso   1.000  C 
  C52      1.0000 0.90005  0.79985  0.04581  Biso   1.000  C 
  C53      1.0000 0.57073  0.13246  0.52476  Biso   1.000  C 
  C54      1.0000 0.66430  0.68119  0.39174  Biso   1.000  C 
  C55      1.0000 0.38981  0.13168  0.32577  Biso   1.000  C 
  C56      1.0000 0.59442  0.76037  0.17432  Biso   1.000  C 
  C57      1.0000 0.64393  0.73979  0.20144  Biso   1.000  C 
  C58      1.0000 0.71092  0.33404  0.92505  Biso   1.000  C 
  C59      1.0000 0.22038  0.72151  0.58015  Biso   1.000  C 
  C60      1.0000 0.64405  0.26691  0.70104  Biso   1.000  C 
  C61      1.0000 0.86619  0.25978  0.67791  Biso   1.000  C 
  C62      1.0000 0.17245  0.71446  0.54953  Biso   1.000  C 
  C63      1.0000 0.36622  0.75967  0.67784  Biso   1.000  C 
  C64      1.0000 0.07069  0.37503  0.02534  Biso   1.000  C 
  H1       1.0000 0.64261  0.36307  0.01278  Biso   1.000  H 
  H2       1.0000 0.89765  0.11935  0.40934  Biso   1.000  H 
  H3       1.0000 0.72579  0.38003  0.07125  Biso   1.000  H 
  H4       1.0000 0.56291  0.61970  0.44322  Biso   1.000  H 
  H5       1.0000 0.37716  0.94751  0.95723  Biso   1.000  H 
  H6       1.0000 0.80264  0.33766  0.94954  Biso   1.000  H 
  H7       1.0000 0.14259  0.14382  0.51375  Biso   1.000  H 
  H8       1.0000 0.87704  0.55836  0.45663  Biso   1.000  H 
  H9       1.0000 0.65791  0.83788  0.90195  Biso   1.000  H 
  H10      1.0000 0.06288  0.11941  0.44329  Biso   1.000  H 
  H11      1.0000 0.37702  0.05830  0.45651  Biso   1.000  H 
  H12      1.0000 0.31815  0.64296  0.33874  Biso   1.000  H 
  H13      1.0000 0.23498  0.62553  0.28040  Biso   1.000  H 
  H14      1.0000 0.15787  0.33755  0.90194  Biso   1.000  H 
  H15      1.0000 0.72576  0.62618  0.57134  Biso   1.000  H 
  H16      1.0000 0.08349  0.55881  0.39424  Biso   1.000  H 
  H17      1.0000 0.64259  0.64408  0.51368  Biso   1.000  H 
  H18      1.0000 0.22576  0.12605  0.57133  Biso   1.000  H 
  H19      1.0000 0.06319  0.88749  0.94215  Biso   1.000  H 
  H20      1.0000 0.58352  0.94843  0.89446  Biso   1.000  H 
  H21      1.0000 0.23470  0.37946  0.77940  Biso   1.000  H 
  H22      1.0000 0.73476  0.87968  0.77943  Biso   1.000  H 
  H23      1.0000 0.30258  0.16823  0.44885  Biso   1.000  H 
  H24      1.0000 0.22582  0.87978  0.07120  Biso   1.000  H 
  H25      1.0000 0.08351  0.44811  0.89450  Biso   1.000  H 
  H26      1.0000 0.73495  0.12569  0.28049  Biso   1.000  H 
  H27      1.0000 0.89753  0.88733  0.90787  Biso   1.000  H 
  H28      1.0000 0.15811  0.66804  0.40205  Biso   1.000  H 
  H29      1.0000 0.14264  0.86266  0.01278  Biso   1.000  H 
  H30      1.0000 0.80259  0.66824  0.44892  Biso   1.000  H 
  H31      1.0000 0.39750  0.38730  0.90770  Biso   1.000  H 
  H32      1.0000 0.31788  0.36194  0.83698  Biso   1.000  H 
  H33      1.0000 0.58348  0.05923  0.39415  Biso   1.000  H 
  H34      1.0000 0.65808  0.16834  0.40209  Biso   1.000  H 
  H35      1.0000 0.39768  0.61930  0.40923  Biso   1.000  H 
  H36      1.0000 0.56314  0.38779  0.94212  Biso   1.000  H 
  H37      1.0000 0.30267  0.83749  0.94949  Biso   1.000  H 
  H38      1.0000 0.87714  0.44760  0.95732  Biso   1.000  H 
  H39      1.0000 0.81811  0.14304  0.33883  Biso   1.000  H 
  H40      1.0000 0.81793  0.86207  0.83714  Biso   1.000  H 
  N1       1.0000 0.44053  0.79003  0.61037  Biso   1.000  N 
  N2       1.0000 0.52690  0.11265  0.56845  Biso   1.000  N 
  N3       1.0000 0.43364  0.11199  0.28224  Biso   1.000  N 
  N4       1.0000 0.52010  0.79050  0.24170  Biso   1.000  N 
  N5       1.0000 0.02692  0.61235  0.56853  Biso   1.000  N 
  N6       1.0000 0.02022  0.71741  0.74100  Biso   1.000  N 
  N7       1.0000 0.94051  0.28998  0.61051  Biso   1.000  N 
  N8       1.0000 0.02689  0.39540  0.06908  Biso   1.000  N 
  N9       1.0000 0.52019  0.21765  0.74094  Biso   1.000  N 
  N10      1.0000 0.52690  0.89563  0.06901  Biso   1.000  N 
  N11      1.0000 0.94042  0.71711  0.10964  Biso   1.000  N 
  N12      1.0000 0.93366  0.61193  0.28234  Biso   1.000  N 
  N13      1.0000 0.02009  0.29028  0.24178  Biso   1.000  N 
  N14      1.0000 0.44040  0.21715  0.10952  Biso   1.000  N 
  N15      1.0000 0.93375  0.39498  0.78295  Biso   1.000  N 
  N16      1.0000 0.43377  0.89498  0.78284  Biso   1.000  N 
  Zn1      1.0000 0.48033  0.07348  0.92569  Biso   1.000  Zn
  Zn2      1.0000 0.98034  0.57346  0.92572  Biso   1.000  Zn
  Zn3      1.0000 0.48028  0.93474  0.42589  Biso   1.000  Zn
  Zn4      1.0000 0.98028  0.43450  0.42596  Biso   1.000  Zn
