data_image0
_cell_length_a       29.1947
_cell_length_b       8.3905
_cell_length_c       7.10715
_cell_angle_alpha    89.8485
_cell_angle_beta     93.4645
_cell_angle_gamma    90.0395

_symmetry_space_group_name_H-M    "P 1"
_symmetry_int_tables_number       1

loop_
  _symmetry_equiv_pos_as_xyz
  'x, y, z'

loop_
  _atom_site_label
  _atom_site_occupancy
  _atom_site_fract_x
  _atom_site_fract_y
  _atom_site_fract_z
  _atom_site_thermal_displace_type
  _atom_site_B_iso_or_equiv
  _atom_site_type_symbol
  C1       1.0000 0.59403  0.20950  0.67948  Biso   1.000  C 
  C2       1.0000 0.25372  0.39676  0.00274  Biso   1.000  C 
  C3       1.0000 0.36655  0.20897  0.17113  Biso   1.000  C 
  C4       1.0000 0.20719  0.11058  0.34920  Biso   1.000  C 
  C5       1.0000 0.81763  0.74869  0.15618  Biso   1.000  C 
  C6       1.0000 0.56181  0.78112  0.31772  Biso   1.000  C 
  C7       1.0000 0.39893  0.78030  0.53488  Biso   1.000  C 
  C8       1.0000 0.16061  0.86588  0.82499  Biso   1.000  C 
  C9       1.0000 0.14296  0.74907  0.69433  Biso   1.000  C 
  C10      1.0000 0.67370  0.16684  0.58814  Biso   1.000  C 
  C11      1.0000 0.72151  0.19550  0.60804  Biso   1.000  C 
  C12      1.0000 0.20697  0.89588  0.84841  Biso   1.000  C 
  C13      1.0000 0.70718  0.61054  0.34911  Biso   1.000  C 
  C14      1.0000 0.22180  0.31219  0.10896  Biso   1.000  C 
  C15      1.0000 0.17401  0.34118  0.08935  Biso   1.000  C 
  C16      1.0000 0.36637  0.79673  0.67145  Biso   1.000  C 
  C17      1.0000 0.06979  0.62760  0.53223  Biso   1.000  C 
  C18      1.0000 0.56979  0.12765  0.53227  Biso   1.000  C 
  C19      1.0000 0.86654  0.70890  0.17105  Biso   1.000  C 
  C20      1.0000 0.66084  0.64090  0.32611  Biso   1.000  C 
  C21      1.0000 0.64324  0.75836  0.19558  Biso   1.000  C 
  C22      1.0000 0.39081  0.12713  0.31871  Biso   1.000  C 
  C23      1.0000 0.59429  0.79758  0.18071  Biso   1.000  C 
  C24      1.0000 0.89903  0.72480  0.03399  Biso   1.000  C 
  C25      1.0000 0.70698  0.39592  0.84838  Biso   1.000  C 
  C26      1.0000 0.22151  0.69548  0.60805  Biso   1.000  C 
  C27      1.0000 0.06993  0.37880  0.03300  Biso   1.000  C 
  C28      1.0000 0.64296  0.24912  0.69434  Biso   1.000  C 
  C29      1.0000 0.86637  0.29667  0.67142  Biso   1.000  C 
  C30      1.0000 0.17371  0.66680  0.58814  Biso   1.000  C 
  C31      1.0000 0.79973  0.14106  0.52536  Biso   1.000  C 
  C32      1.0000 0.56150  0.22531  0.81627  Biso   1.000  C 
  C33      1.0000 0.66061  0.36595  0.82497  Biso   1.000  C 
  C34      1.0000 0.25337  0.61126  0.50187  Biso   1.000  C 
  C35      1.0000 0.89893  0.28026  0.53485  Biso   1.000  C 
  C36      1.0000 0.89066  0.37819  0.81873  Biso   1.000  C 
  C37      1.0000 0.39066  0.87826  0.81875  Biso   1.000  C 
  C38      1.0000 0.30005  0.36634  0.02583  Biso   1.000  C 
  C39      1.0000 0.56992  0.87884  0.03300  Biso   1.000  C 
  C40      1.0000 0.09429  0.29755  0.18072  Biso   1.000  C 
  C41      1.0000 0.31764  0.24875  0.15627  Biso   1.000  C 
  C42      1.0000 0.16085  0.14092  0.32618  Biso   1.000  C 
  C43      1.0000 0.67400  0.84118  0.08930  Biso   1.000  C 
  C44      1.0000 0.72180  0.81216  0.10889  Biso   1.000  C 
  C45      1.0000 0.75371  0.89672  0.00266  Biso   1.000  C 
  C46      1.0000 0.23908  0.19512  0.24286  Biso   1.000  C 
  C47      1.0000 0.28685  0.16602  0.26248  Biso   1.000  C 
  C48      1.0000 0.09403  0.70944  0.67944  Biso   1.000  C 
  C49      1.0000 0.39903  0.22486  0.03406  Biso   1.000  C 
  C50      1.0000 0.80005  0.86629  0.02574  Biso   1.000  C 
  C51      1.0000 0.06181  0.28108  0.31771  Biso   1.000  C 
  C52      1.0000 0.81740  0.25764  0.65622  Biso   1.000  C 
  C53      1.0000 0.14325  0.25835  0.19562  Biso   1.000  C 
  C54      1.0000 0.73886  0.31167  0.74228  Biso   1.000  C 
  C55      1.0000 0.73907  0.69507  0.24277  Biso   1.000  C 
  C56      1.0000 0.28667  0.84010  0.76243  Biso   1.000  C 
  C57      1.0000 0.78668  0.34009  0.76239  Biso   1.000  C 
  C58      1.0000 0.75336  0.11126  0.50186  Biso   1.000  C 
  C59      1.0000 0.31741  0.75767  0.65625  Biso   1.000  C 
  C60      1.0000 0.06150  0.72525  0.81623  Biso   1.000  C 
  C61      1.0000 0.78685  0.66596  0.26237  Biso   1.000  C 
  C62      1.0000 0.23886  0.81165  0.74231  Biso   1.000  C 
  C63      1.0000 0.89080  0.62707  0.31864  Biso   1.000  C 
  C64      1.0000 0.29974  0.64109  0.52538  Biso   1.000  C 
  H1       1.0000 0.74057  0.02168  0.40083  Biso   1.000  H 
  H2       1.0000 0.89523  0.77663  0.89369  Biso   1.000  H 
  H3       1.0000 0.39522  0.27668  0.89375  Biso   1.000  H 
  H4       1.0000 0.16136  0.57437  0.48968  Biso   1.000  H 
  H5       1.0000 0.74100  0.98705  0.90195  Biso   1.000  H 
  H6       1.0000 0.13696  0.93307  0.90770  Biso   1.000  H 
  H7       1.0000 0.08126  0.41534  0.89667  Biso   1.000  H 
  H8       1.0000 0.79915  0.57293  0.36066  Biso   1.000  H 
  H9       1.0000 0.29905  0.93234  0.86108  Biso   1.000  H 
  H10      1.0000 0.32374  0.43381  0.94312  Biso   1.000  H 
  H11      1.0000 0.58119  0.09128  0.39625  Biso   1.000  H 
  H12      1.0000 0.66135  0.07441  0.48969  Biso   1.000  H 
  H13      1.0000 0.39515  0.72852  0.39486  Biso   1.000  H 
  H14      1.0000 0.56527  0.27707  0.95630  Biso   1.000  H 
  H15      1.0000 0.29916  0.07300  0.36077  Biso   1.000  H 
  H16      1.0000 0.82337  0.07381  0.44267  Biso   1.000  H 
  H17      1.0000 0.24101  0.48708  0.90201  Biso   1.000  H 
  H18      1.0000 0.87925  0.41483  0.95463  Biso   1.000  H 
  H19      1.0000 0.82374  0.93374  0.94302  Biso   1.000  H 
  H20      1.0000 0.21974  0.98554  0.94941  Biso   1.000  H 
  H21      1.0000 0.63697  0.43315  0.90768  Biso   1.000  H 
  H22      1.0000 0.63717  0.57348  0.40892  Biso   1.000  H 
  H23      1.0000 0.71975  0.48558  0.94936  Biso   1.000  H 
  H24      1.0000 0.37925  0.91490  0.95466  Biso   1.000  H 
  H25      1.0000 0.79906  0.43233  0.86103  Biso   1.000  H 
  H26      1.0000 0.06527  0.77700  0.95627  Biso   1.000  H 
  H27      1.0000 0.13717  0.07349  0.40898  Biso   1.000  H 
  H28      1.0000 0.89514  0.22849  0.39482  Biso   1.000  H 
  H29      1.0000 0.56569  0.72951  0.45812  Biso   1.000  H 
  H30      1.0000 0.87943  0.59068  0.45496  Biso   1.000  H 
  H31      1.0000 0.21993  0.02036  0.45000  Biso   1.000  H 
  H32      1.0000 0.06569  0.22946  0.45810  Biso   1.000  H 
  H33      1.0000 0.37945  0.09076  0.45504  Biso   1.000  H 
  H34      1.0000 0.32338  0.57386  0.44269  Biso   1.000  H 
  H35      1.0000 0.24059  0.52169  0.40084  Biso   1.000  H 
  H36      1.0000 0.16167  0.43412  0.99100  Biso   1.000  H 
  H37      1.0000 0.08120  0.59124  0.39621  Biso   1.000  H 
  H38      1.0000 0.58125  0.91538  0.89666  Biso   1.000  H 
  H39      1.0000 0.66167  0.93413  0.99097  Biso   1.000  H 
  H40      1.0000 0.71992  0.52031  0.44989  Biso   1.000  H 
  N1       1.0000 0.43364  0.91057  0.77105  Biso   1.000  N 
  N2       1.0000 0.93370  0.59418  0.27069  Biso   1.000  N 
  N3       1.0000 0.52696  0.91094  0.08081  Biso   1.000  N 
  N4       1.0000 0.43899  0.15469  0.09414  Biso   1.000  N 
  N5       1.0000 0.93364  0.41051  0.77102  Biso   1.000  N 
  N6       1.0000 0.52155  0.15506  0.75643  Biso   1.000  N 
  N7       1.0000 0.93899  0.65464  0.09409  Biso   1.000  N 
  N8       1.0000 0.02175  0.35042  0.25743  Biso   1.000  N 
  N9       1.0000 0.52175  0.85048  0.25746  Biso   1.000  N 
  N10      1.0000 0.43895  0.84996  0.59492  Biso   1.000  N 
  N11      1.0000 0.02696  0.41089  0.08078  Biso   1.000  N 
  N12      1.0000 0.02688  0.59457  0.58020  Biso   1.000  N 
  N13      1.0000 0.93895  0.34991  0.59488  Biso   1.000  N 
  N14      1.0000 0.02155  0.65501  0.75639  Biso   1.000  N 
  N15      1.0000 0.52688  0.09462  0.58025  Biso   1.000  N 
  N16      1.0000 0.43371  0.09424  0.27075  Biso   1.000  N 
  Zn1      1.0000 0.48026  0.03939  0.92554  Biso   1.000  Zn
  Zn2      1.0000 0.98026  0.53933  0.92550  Biso   1.000  Zn
  Zn3      1.0000 0.48032  0.96544  0.42586  Biso   1.000  Zn
  Zn4      1.0000 0.98031  0.46537  0.42581  Biso   1.000  Zn
