data_image0
_cell_length_a       6.71656
_cell_length_b       34.9013
_cell_length_c       6.73341
_cell_angle_alpha    90.3318
_cell_angle_beta     90.185
_cell_angle_gamma    90.1429

_symmetry_space_group_name_H-M    "P 1"
_symmetry_int_tables_number       1

loop_
  _symmetry_equiv_pos_as_xyz
  'x, y, z'

loop_
  _atom_site_label
  _atom_site_occupancy
  _atom_site_fract_x
  _atom_site_fract_y
  _atom_site_fract_z
  _atom_site_thermal_displace_type
  _atom_site_B_iso_or_equiv
  _atom_site_type_symbol
  C1       1.0000 0.24596  0.11613  0.90072  Biso   1.000  C 
  C2       1.0000 0.26014  0.42705  0.95410  Biso   1.000  C 
  C3       1.0000 0.77421  0.23081  0.41913  Biso   1.000  C 
  C4       1.0000 0.27432  0.73081  0.41921  Biso   1.000  C 
  C5       1.0000 0.35615  0.94620  0.59918  Biso   1.000  C 
  C6       1.0000 0.71365  0.65590  0.90698  Biso   1.000  C 
  C7       1.0000 0.21831  0.19089  0.91216  Biso   1.000  C 
  C8       1.0000 0.69750  0.79151  0.09920  Biso   1.000  C 
  C9       1.0000 0.17932  0.25196  0.09150  Biso   1.000  C 
  C10      1.0000 0.26210  0.61577  0.40109  Biso   1.000  C 
  C11      1.0000 0.76212  0.11577  0.40116  Biso   1.000  C 
  C12      1.0000 0.14881  0.59629  0.25482  Biso   1.000  C 
  C13      1.0000 0.64886  0.09629  0.25489  Biso   1.000  C 
  C14      1.0000 0.67937  0.75197  0.09154  Biso   1.000  C 
  C15      1.0000 0.23493  0.23125  0.91950  Biso   1.000  C 
  C16      1.0000 0.29460  0.58779  0.54837  Biso   1.000  C 
  C17      1.0000 0.31051  0.25174  0.75538  Biso   1.000  C 
  C18      1.0000 0.81044  0.75176  0.75542  Biso   1.000  C 
  C19      1.0000 0.32849  0.29128  0.76291  Biso   1.000  C 
  C20      1.0000 0.82844  0.79130  0.76299  Biso   1.000  C 
  C21      1.0000 0.27298  0.31199  0.93495  Biso   1.000  C 
  C22      1.0000 0.77300  0.81200  0.93505  Biso   1.000  C 
  C23      1.0000 0.28957  0.35234  0.94249  Biso   1.000  C 
  C24      1.0000 0.78966  0.85236  0.94266  Biso   1.000  C 
  C25      1.0000 0.21031  0.95454  0.30552  Biso   1.000  C 
  C26      1.0000 0.71031  0.45454  0.30530  Biso   1.000  C 
  C27      1.0000 0.24390  0.92657  0.45262  Biso   1.000  C 
  C28      1.0000 0.74383  0.42658  0.45245  Biso   1.000  C 
  C29      1.0000 0.21584  0.85180  0.44128  Biso   1.000  C 
  C30      1.0000 0.79461  0.08780  0.54849  Biso   1.000  C 
  C31      1.0000 0.21364  0.15588  0.90703  Biso   1.000  C 
  C32      1.0000 0.76037  0.92708  0.95438  Biso   1.000  C 
  C33      1.0000 0.71836  0.69090  0.91217  Biso   1.000  C 
  C34      1.0000 0.64746  0.94648  0.10009  Biso   1.000  C 
  C35      1.0000 0.19744  0.29150  0.09911  Biso   1.000  C 
  C36      1.0000 0.73498  0.73125  0.91954  Biso   1.000  C 
  C37      1.0000 0.71587  0.35180  0.44105  Biso   1.000  C 
  C38      1.0000 0.29367  0.38734  0.94776  Biso   1.000  C 
  C39      1.0000 0.85600  0.44621  0.59904  Biso   1.000  C 
  C40      1.0000 0.79382  0.88736  0.94800  Biso   1.000  C 
  C41      1.0000 0.79349  0.95511  0.80756  Biso   1.000  C 
  C42      1.0000 0.29329  0.45508  0.80730  Biso   1.000  C 
  C43      1.0000 0.29191  0.69050  0.41208  Biso   1.000  C 
  C44      1.0000 0.67947  0.29063  0.26136  Biso   1.000  C 
  C45      1.0000 0.17953  0.79063  0.26150  Biso   1.000  C 
  C46      1.0000 0.69897  0.25113  0.25406  Biso   1.000  C 
  C47      1.0000 0.19909  0.75113  0.25414  Biso   1.000  C 
  C48      1.0000 0.14731  0.44646  0.09986  Biso   1.000  C 
  C49      1.0000 0.79612  0.15549  0.40722  Biso   1.000  C 
  C50      1.0000 0.82817  0.25165  0.59173  Biso   1.000  C 
  C51      1.0000 0.32822  0.75165  0.59185  Biso   1.000  C 
  C52      1.0000 0.80878  0.29116  0.59899  Biso   1.000  C 
  C53      1.0000 0.30879  0.79116  0.59919  Biso   1.000  C 
  C54      1.0000 0.73346  0.31148  0.43393  Biso   1.000  C 
  C55      1.0000 0.85796  0.59658  0.75479  Biso   1.000  C 
  C56      1.0000 0.35797  0.09657  0.75489  Biso   1.000  C 
  C57      1.0000 0.74595  0.61614  0.90064  Biso   1.000  C 
  C58      1.0000 0.79183  0.19049  0.41205  Biso   1.000  C 
  C59      1.0000 0.23345  0.81148  0.43413  Biso   1.000  C 
  C60      1.0000 0.71157  0.58812  0.04723  Biso   1.000  C 
  C61      1.0000 0.21159  0.08811  0.04734  Biso   1.000  C 
  C62      1.0000 0.21113  0.88680  0.44631  Biso   1.000  C 
  C63      1.0000 0.71109  0.38680  0.44616  Biso   1.000  C 
  C64      1.0000 0.29614  0.65550  0.40720  Biso   1.000  C 
  Co1      1.0000 0.44994  0.02136  0.17714  Biso   1.000  Co
  Co2      1.0000 0.94991  0.52136  0.17696  Biso   1.000  Co
  Co3      1.0000 0.05224  0.52140  0.67722  Biso   1.000  Co
  Co4      1.0000 0.55238  0.02142  0.67743  Biso   1.000  Co
  H1       1.0000 0.63437  0.59086  0.18810  Biso   1.000  H 
  H2       1.0000 0.41597  0.10751  0.61604  Biso   1.000  H 
  H3       1.0000 0.65650  0.23543  0.12008  Biso   1.000  H 
  H4       1.0000 0.87193  0.09053  0.68982  Biso   1.000  H 
  H5       1.0000 0.91598  0.60752  0.61594  Biso   1.000  H 
  H6       1.0000 0.37051  0.45241  0.66637  Biso   1.000  H 
  H7       1.0000 0.41386  0.93531  0.73852  Biso   1.000  H 
  H8       1.0000 0.35132  0.80685  0.73316  Biso   1.000  H 
  H9       1.0000 0.08987  0.43546  0.23884  Biso   1.000  H 
  H10      1.0000 0.12241  0.80601  0.13331  Biso   1.000  H 
  H11      1.0000 0.87074  0.95245  0.66666  Biso   1.000  H 
  H12      1.0000 0.15379  0.30711  0.23262  Biso   1.000  H 
  H13      1.0000 0.88522  0.23627  0.71991  Biso   1.000  H 
  H14      1.0000 0.38529  0.73627  0.72001  Biso   1.000  H 
  H15      1.0000 0.85139  0.30686  0.73291  Biso   1.000  H 
  H16      1.0000 0.15670  0.73545  0.12011  Biso   1.000  H 
  H17      1.0000 0.13439  0.09086  0.18822  Biso   1.000  H 
  H18      1.0000 0.38566  0.30681  0.63543  Biso   1.000  H 
  H19      1.0000 0.59006  0.93547  0.23906  Biso   1.000  H 
  H20      1.0000 0.91360  0.43532  0.73843  Biso   1.000  H 
  H21      1.0000 0.65387  0.80711  0.23273  Biso   1.000  H 
  H22      1.0000 0.59152  0.10723  0.11549  Biso   1.000  H 
  H23      1.0000 0.63329  0.45172  0.16383  Biso   1.000  H 
  H24      1.0000 0.13324  0.95172  0.16408  Biso   1.000  H 
  H25      1.0000 0.12199  0.23645  0.21896  Biso   1.000  H 
  H26      1.0000 0.85418  0.73618  0.62190  Biso   1.000  H 
  H27      1.0000 0.35428  0.23614  0.62192  Biso   1.000  H 
  H28      1.0000 0.62207  0.73646  0.21902  Biso   1.000  H 
  H29      1.0000 0.37188  0.59052  0.68974  Biso   1.000  H 
  H30      1.0000 0.62239  0.30600  0.13317  Biso   1.000  H 
  H31      1.0000 0.88553  0.80684  0.63551  Biso   1.000  H 
  H32      1.0000 0.09149  0.60723  0.11543  Biso   1.000  H 
  N1       1.0000 0.30164  0.98763  0.35835  Biso   1.000  N 
  N2       1.0000 0.20115  0.48800  0.85954  Biso   1.000  N 
  N3       1.0000 0.39149  0.98233  0.53993  Biso   1.000  N 
  N4       1.0000 0.30219  0.05505  0.99491  Biso   1.000  N 
  N5       1.0000 0.89134  0.48234  0.53977  Biso   1.000  N 
  N6       1.0000 0.80158  0.48763  0.35815  Biso   1.000  N 
  N7       1.0000 0.61201  0.06025  0.31450  Biso   1.000  N 
  N8       1.0000 0.39237  0.06043  0.81407  Biso   1.000  N 
  N9       1.0000 0.80215  0.55506  0.99477  Biso   1.000  N 
  N10      1.0000 0.70128  0.98801  0.85978  Biso   1.000  N 
  N11      1.0000 0.61129  0.98253  0.04057  Biso   1.000  N 
  N12      1.0000 0.20180  0.55484  0.49580  Biso   1.000  N 
  N13      1.0000 0.70185  0.05485  0.49594  Biso   1.000  N 
  N14      1.0000 0.11196  0.56025  0.31437  Biso   1.000  N 
  N15      1.0000 0.89235  0.56044  0.81394  Biso   1.000  N 
  N16      1.0000 0.11118  0.48251  0.04034  Biso   1.000  N 
