data_image0
_cell_length_a       29.1723
_cell_length_b       6.99849
_cell_length_c       6.69742
_cell_angle_alpha    87.2766
_cell_angle_beta     87.2077
_cell_angle_gamma    91.2746

_symmetry_space_group_name_H-M    "P 1"
_symmetry_int_tables_number       1

loop_
  _symmetry_equiv_pos_as_xyz
  'x, y, z'

loop_
  _atom_site_label
  _atom_site_occupancy
  _atom_site_fract_x
  _atom_site_fract_y
  _atom_site_fract_z
  _atom_site_thermal_displace_type
  _atom_site_B_iso_or_equiv
  _atom_site_type_symbol
  C1       1.0000 0.32942  0.68212  0.25495  Biso   1.000  C 
  C2       1.0000 0.24476  0.24024  0.04003  Biso   1.000  C 
  C3       1.0000 0.39345  0.76458  0.47237  Biso   1.000  C 
  C4       1.0000 0.41384  0.87160  0.61923  Biso   1.000  C 
  C5       1.0000 0.18475  0.86031  0.64099  Biso   1.000  C 
  C6       1.0000 0.12203  0.30142  0.89096  Biso   1.000  C 
  C7       1.0000 0.62199  0.80121  0.89123  Biso   1.000  C 
  C8       1.0000 0.09510  0.38839  0.74505  Biso   1.000  C 
  C9       1.0000 0.59506  0.88817  0.74530  Biso   1.000  C 
  C10      1.0000 0.68481  0.35992  0.64128  Biso   1.000  C 
  C11      1.0000 0.16984  0.80172  0.45321  Biso   1.000  C 
  C12      1.0000 0.66987  0.30142  0.45351  Biso   1.000  C 
  C13      1.0000 0.20285  0.74686  0.31145  Biso   1.000  C 
  C14      1.0000 0.70287  0.24657  0.31166  Biso   1.000  C 
  C15      1.0000 0.59083  0.76933  0.05775  Biso   1.000  C 
  C16      1.0000 0.19744  0.34419  0.69833  Biso   1.000  C 
  C17      1.0000 0.24990  0.74320  0.35240  Biso   1.000  C 
  C18      1.0000 0.23028  0.85873  0.68486  Biso   1.000  C 
  C19      1.0000 0.81137  0.29462  0.58477  Biso   1.000  C 
  C20      1.0000 0.82943  0.18182  0.25487  Biso   1.000  C 
  C21      1.0000 0.91941  0.65208  0.15231  Biso   1.000  C 
  C22      1.0000 0.41942  0.15234  0.15253  Biso   1.000  C 
  C23      1.0000 0.89252  0.73944  0.00653  Biso   1.000  C 
  C24      1.0000 0.28389  0.68387  0.21110  Biso   1.000  C 
  C25      1.0000 0.92363  0.77066  0.83977  Biso   1.000  C 
  C26      1.0000 0.42365  0.27088  0.83998  Biso   1.000  C 
  C27      1.0000 0.31132  0.79505  0.58476  Biso   1.000  C 
  C28      1.0000 0.73034  0.35829  0.68505  Biso   1.000  C 
  C29      1.0000 0.26427  0.79906  0.54377  Biso   1.000  C 
  C30      1.0000 0.74992  0.24286  0.35251  Biso   1.000  C 
  C31      1.0000 0.09087  0.26935  0.05743  Biso   1.000  C 
  C32      1.0000 0.34432  0.74003  0.44300  Biso   1.000  C 
  C33      1.0000 0.39253  0.23971  0.00672  Biso   1.000  C 
  C34      1.0000 0.77000  0.69002  0.20973  Biso   1.000  C 
  C35      1.0000 0.78389  0.18354  0.21112  Biso   1.000  C 
  C36      1.0000 0.76432  0.29866  0.54386  Biso   1.000  C 
  C37      1.0000 0.91387  0.37133  0.61905  Biso   1.000  C 
  C38      1.0000 0.08371  0.80978  0.56011  Biso   1.000  C 
  C39      1.0000 0.31714  0.19800  0.19964  Biso   1.000  C 
  C40      1.0000 0.84256  0.75499  0.01841  Biso   1.000  C 
  C41      1.0000 0.34258  0.25529  0.01851  Biso   1.000  C 
  C42      1.0000 0.81830  0.80822  0.85170  Biso   1.000  C 
  C43      1.0000 0.62075  0.27612  0.42450  Biso   1.000  C 
  C44      1.0000 0.12071  0.77634  0.42414  Biso   1.000  C 
  C45      1.0000 0.60042  0.16874  0.27778  Biso   1.000  C 
  C46      1.0000 0.10040  0.66885  0.27745  Biso   1.000  C 
  C47      1.0000 0.31834  0.30852  0.85173  Biso   1.000  C 
  C48      1.0000 0.74452  0.85171  0.68837  Biso   1.000  C 
  C49      1.0000 0.27000  0.19034  0.20971  Biso   1.000  C 
  C50      1.0000 0.76977  0.80165  0.85797  Biso   1.000  C 
  C51      1.0000 0.81714  0.69768  0.19959  Biso   1.000  C 
  C52      1.0000 0.84435  0.23969  0.44289  Biso   1.000  C 
  C53      1.0000 0.89348  0.26430  0.47219  Biso   1.000  C 
  C54      1.0000 0.43045  0.73041  0.33667  Biso   1.000  C 
  C55      1.0000 0.93048  0.23022  0.33644  Biso   1.000  C 
  C56      1.0000 0.69738  0.84385  0.69849  Biso   1.000  C 
  C57      1.0000 0.24458  0.35206  0.68830  Biso   1.000  C 
  C58      1.0000 0.67196  0.78632  0.87959  Biso   1.000  C 
  C59      1.0000 0.19624  0.23354  0.04619  Biso   1.000  C 
  C60      1.0000 0.69621  0.73320  0.04634  Biso   1.000  C 
  C61      1.0000 0.58375  0.30962  0.56050  Biso   1.000  C 
  C62      1.0000 0.17200  0.28663  0.87939  Biso   1.000  C 
  C63      1.0000 0.74473  0.73991  0.04010  Biso   1.000  C 
  C64      1.0000 0.26981  0.30199  0.85793  Biso   1.000  C 
  Co1      1.0000 0.00978  0.47599  0.20357  Biso   1.000  Co
  Co2      1.0000 0.50457  0.06315  0.69337  Biso   1.000  Co
  Co3      1.0000 0.00457  0.56309  0.69312  Biso   1.000  Co
  Co4      1.0000 0.50978  0.97611  0.20382  Biso   1.000  Co
  H1       1.0000 0.17809  0.18835  0.18759  Biso   1.000  H 
  H2       1.0000 0.67808  0.68798  0.18775  Biso   1.000  H 
  H3       1.0000 0.33530  0.15641  0.33269  Biso   1.000  H 
  H4       1.0000 0.43099  0.65630  0.19771  Biso   1.000  H 
  H5       1.0000 0.93100  0.15615  0.19746  Biso   1.000  H 
  H6       1.0000 0.11590  0.61036  0.14369  Biso   1.000  H 
  H7       1.0000 0.61591  0.11027  0.14399  Biso   1.000  H 
  H8       1.0000 0.08314  0.88385  0.69909  Biso   1.000  H 
  H9       1.0000 0.09627  0.20649  0.20567  Biso   1.000  H 
  H10      1.0000 0.90976  0.60301  0.30486  Biso   1.000  H 
  H11      1.0000 0.76319  0.89781  0.54903  Biso   1.000  H 
  H12      1.0000 0.33649  0.35365  0.71033  Biso   1.000  H 
  H13      1.0000 0.83644  0.85337  0.71027  Biso   1.000  H 
  H14      1.0000 0.25132  0.14443  0.34906  Biso   1.000  H 
  H15      1.0000 0.58319  0.38364  0.69951  Biso   1.000  H 
  H16      1.0000 0.75133  0.64409  0.34909  Biso   1.000  H 
  H17      1.0000 0.17927  0.38571  0.56530  Biso   1.000  H 
  H18      1.0000 0.39835  0.93043  0.75286  Biso   1.000  H 
  H19      1.0000 0.67920  0.88542  0.56550  Biso   1.000  H 
  H20      1.0000 0.26325  0.39819  0.54900  Biso   1.000  H 
  H21      1.0000 0.83530  0.65606  0.33259  Biso   1.000  H 
  H22      1.0000 0.89839  0.43013  0.75270  Biso   1.000  H 
  H23      1.0000 0.82143  0.34071  0.73019  Biso   1.000  H 
  H24      1.0000 0.77344  0.13882  0.06597  Biso   1.000  H 
  H25      1.0000 0.40975  0.10324  0.30507  Biso   1.000  H 
  H26      1.0000 0.91822  0.83353  0.69156  Biso   1.000  H 
  H27      1.0000 0.41825  0.33371  0.69175  Biso   1.000  H 
  H28      1.0000 0.60476  0.93761  0.59289  Biso   1.000  H 
  H29      1.0000 0.10480  0.43789  0.59267  Biso   1.000  H 
  H30      1.0000 0.59625  0.70658  0.20602  Biso   1.000  H 
  H31      1.0000 0.15949  0.90449  0.75377  Biso   1.000  H 
  H32      1.0000 0.32137  0.84125  0.73018  Biso   1.000  H 
  H33      1.0000 0.24072  0.90385  0.82987  Biso   1.000  H 
  H34      1.0000 0.74081  0.40334  0.83005  Biso   1.000  H 
  H35      1.0000 0.19282  0.70045  0.16611  Biso   1.000  H 
  H36      1.0000 0.69282  0.20025  0.16630  Biso   1.000  H 
  H37      1.0000 0.27345  0.63916  0.06592  Biso   1.000  H 
  H38      1.0000 0.65957  0.40411  0.75412  Biso   1.000  H 
  H39      1.0000 0.85468  0.13793  0.14191  Biso   1.000  H 
  H40      1.0000 0.35469  0.63824  0.14204  Biso   1.000  H 
  N1       1.0000 0.46926  0.81737  0.39395  Biso   1.000  N 
  N2       1.0000 0.04940  0.33974  0.01528  Biso   1.000  N 
  N3       1.0000 0.05217  0.41329  0.82151  Biso   1.000  N 
  N4       1.0000 0.96227  0.62625  0.07551  Biso   1.000  N 
  N5       1.0000 0.55214  0.91322  0.82179  Biso   1.000  N 
  N6       1.0000 0.55553  0.13477  0.32828  Biso   1.000  N 
  N7       1.0000 0.46228  0.12649  0.07577  Biso   1.000  N 
  N8       1.0000 0.54501  0.22205  0.50340  Biso   1.000  N 
  N9       1.0000 0.45876  0.90481  0.56902  Biso   1.000  N 
  N10      1.0000 0.95879  0.40460  0.56879  Biso   1.000  N 
  N11      1.0000 0.04497  0.72208  0.50306  Biso   1.000  N 
  N12      1.0000 0.05552  0.63477  0.32797  Biso   1.000  N 
  N13      1.0000 0.46506  0.19972  0.88191  Biso   1.000  N 
  N14      1.0000 0.96504  0.69953  0.88167  Biso   1.000  N 
  N15      1.0000 0.96929  0.31720  0.39369  Biso   1.000  N 
  N16      1.0000 0.54937  0.83978  0.01560  Biso   1.000  N 
