data_image0
_cell_length_a       26.6331
_cell_length_b       5.96339
_cell_length_c       7.38903
_cell_angle_alpha    90.0005
_cell_angle_beta     90.0001
_cell_angle_gamma    90.0006

_symmetry_space_group_name_H-M    "P 1"
_symmetry_int_tables_number       1

loop_
  _symmetry_equiv_pos_as_xyz
  'x, y, z'

loop_
  _atom_site_label
  _atom_site_occupancy
  _atom_site_fract_x
  _atom_site_fract_y
  _atom_site_fract_z
  _atom_site_thermal_displace_type
  _atom_site_B_iso_or_equiv
  _atom_site_type_symbol
  C1       1.0000 0.61066  0.76998  0.85013  Biso   1.000  C 
  C2       1.0000 0.24100  0.23814  0.00001  Biso   1.000  C 
  C3       1.0000 0.11066  0.26996  0.85014  Biso   1.000  C 
  C4       1.0000 0.42167  0.22998  0.85014  Biso   1.000  C 
  C5       1.0000 0.92167  0.72997  0.85013  Biso   1.000  C 
  C6       1.0000 0.38973  0.73604  0.50000  Biso   1.000  C 
  C7       1.0000 0.19512  0.78170  0.49999  Biso   1.000  C 
  C8       1.0000 0.88973  0.23603  0.50000  Biso   1.000  C 
  C9       1.0000 0.69512  0.28170  0.50000  Biso   1.000  C 
  C10      1.0000 0.64260  0.26394  0.50000  Biso   1.000  C 
  C11      1.0000 0.64260  0.73609  1.00000  Biso   1.000  C 
  C12      1.0000 0.14260  0.23608  0.00000  Biso   1.000  C 
  C13      1.0000 0.33721  0.28194  0.00001  Biso   1.000  C 
  C14      1.0000 0.83721  0.21806  0.50000  Biso   1.000  C 
  C15      1.0000 0.14260  0.76393  0.50000  Biso   1.000  C 
  C16      1.0000 0.33721  0.71807  0.50000  Biso   1.000  C 
  C17      1.0000 0.11066  0.73004  0.64986  Biso   1.000  C 
  C18      1.0000 0.69512  0.71834  0.99999  Biso   1.000  C 
  C19      1.0000 0.19512  0.21833  0.00000  Biso   1.000  C 
  C20      1.0000 0.38974  0.26397  0.00001  Biso   1.000  C 
  C21      1.0000 0.92167  0.27002  0.64987  Biso   1.000  C 
  C22      1.0000 0.24100  0.76189  0.49999  Biso   1.000  C 
  C23      1.0000 0.74100  0.26189  0.50001  Biso   1.000  C 
  C24      1.0000 0.79132  0.23769  0.50001  Biso   1.000  C 
  C25      1.0000 0.29132  0.73769  0.50000  Biso   1.000  C 
  C26      1.0000 0.79133  0.76233  0.99999  Biso   1.000  C 
  C27      1.0000 0.29133  0.26233  0.00001  Biso   1.000  C 
  C28      1.0000 0.83721  0.78193  1.00000  Biso   1.000  C 
  C29      1.0000 0.61066  0.23006  0.64987  Biso   1.000  C 
  C30      1.0000 0.74100  0.73815  0.99999  Biso   1.000  C 
  C31      1.0000 0.11066  0.26996  0.14987  Biso   1.000  C 
  C32      1.0000 0.42167  0.77002  0.35013  Biso   1.000  C 
  C33      1.0000 0.92167  0.27001  0.35013  Biso   1.000  C 
  C34      1.0000 0.61066  0.23004  0.35013  Biso   1.000  C 
  C35      1.0000 0.92167  0.72996  0.14987  Biso   1.000  C 
  C36      1.0000 0.42167  0.22998  0.14987  Biso   1.000  C 
  C37      1.0000 0.42167  0.77002  0.64987  Biso   1.000  C 
  C38      1.0000 0.88974  0.76395  1.00000  Biso   1.000  C 
  C39      1.0000 0.61066  0.76995  0.14986  Biso   1.000  C 
  C40      1.0000 0.11066  0.73004  0.35013  Biso   1.000  C 
  H1       1.0000 0.41247  0.76143  0.20731  Biso   1.000  H 
  H2       1.0000 0.91248  0.26144  0.79269  Biso   1.000  H 
  H3       1.0000 0.61985  0.76147  0.70730  Biso   1.000  H 
  H4       1.0000 0.41248  0.23857  0.70731  Biso   1.000  H 
  H5       1.0000 0.11985  0.26145  0.70730  Biso   1.000  H 
  H6       1.0000 0.91248  0.73856  0.70731  Biso   1.000  H 
  H7       1.0000 0.61985  0.23858  0.79270  Biso   1.000  H 
  H8       1.0000 0.11985  0.73855  0.79269  Biso   1.000  H 
  H9       1.0000 0.91247  0.26142  0.20731  Biso   1.000  H 
  H10      1.0000 0.41247  0.76145  0.79269  Biso   1.000  H 
  H11      1.0000 0.11985  0.26145  0.29270  Biso   1.000  H 
  H12      1.0000 0.11985  0.73856  0.20730  Biso   1.000  H 
  H13      1.0000 0.61985  0.23854  0.20730  Biso   1.000  H 
  H14      1.0000 0.41248  0.23855  0.29270  Biso   1.000  H 
  H15      1.0000 0.91248  0.73853  0.29269  Biso   1.000  H 
  H16      1.0000 0.61985  0.76143  0.29269  Biso   1.000  H 
  N1       1.0000 0.96785  0.32879  0.59294  Biso   1.000  N 
  N2       1.0000 0.56447  0.17134  0.40705  Biso   1.000  N 
  N3       1.0000 0.56447  0.17135  0.59295  Biso   1.000  N 
  N4       1.0000 0.96785  0.67119  0.90706  Biso   1.000  N 
  N5       1.0000 0.46785  0.82879  0.59294  Biso   1.000  N 
  N6       1.0000 0.46785  0.82879  0.40706  Biso   1.000  N 
  N7       1.0000 0.46785  0.17120  0.90706  Biso   1.000  N 
  N8       1.0000 0.96785  0.32878  0.40706  Biso   1.000  N 
  N9       1.0000 0.96785  0.67118  0.09294  Biso   1.000  N 
  N10      1.0000 0.56447  0.82864  0.09295  Biso   1.000  N 
  N11      1.0000 0.06447  0.67134  0.59295  Biso   1.000  N 
  N12      1.0000 0.06447  0.67134  0.40705  Biso   1.000  N 
  N13      1.0000 0.06447  0.32865  0.90705  Biso   1.000  N 
  N14      1.0000 0.06447  0.32865  0.09295  Biso   1.000  N 
  N15      1.0000 0.56447  0.82866  0.90705  Biso   1.000  N 
  N16      1.0000 0.46785  0.17119  0.09295  Biso   1.000  N 
  Zn1      1.0000 0.51614  0.99999  0.25000  Biso   1.000  Zn
  Zn2      1.0000 0.01614  0.49999  0.75000  Biso   1.000  Zn
  Zn3      1.0000 0.01614  0.49998  0.25000  Biso   1.000  Zn
  Zn4      1.0000 0.51614  1.00000  0.75000  Biso   1.000  Zn
