data_image0
_cell_length_a       33.6201
_cell_length_b       6.2559
_cell_length_c       6.94124
_cell_angle_alpha    83.5118
_cell_angle_beta     90.1945
_cell_angle_gamma    94.2185

_symmetry_space_group_name_H-M    "P 1"
_symmetry_int_tables_number       1

loop_
  _symmetry_equiv_pos_as_xyz
  'x, y, z'

loop_
  _atom_site_label
  _atom_site_occupancy
  _atom_site_fract_x
  _atom_site_fract_y
  _atom_site_fract_z
  _atom_site_thermal_displace_type
  _atom_site_B_iso_or_equiv
  _atom_site_type_symbol
  C1       1.0000 0.29667  0.78682  0.58457  Biso   1.000  C 
  C2       1.0000 0.34065  0.33204  0.12562  Biso   1.000  C 
  C3       1.0000 0.08394  0.37432  0.88306  Biso   1.000  C 
  C4       1.0000 0.57790  0.33948  0.64215  Biso   1.000  C 
  C5       1.0000 0.07791  0.83737  0.64411  Biso   1.000  C 
  C6       1.0000 0.24335  0.28821  0.84150  Biso   1.000  C 
  C7       1.0000 0.78397  0.81286  0.88141  Biso   1.000  C 
  C8       1.0000 0.28390  0.31317  0.88141  Biso   1.000  C 
  C9       1.0000 0.79736  0.80512  0.07385  Biso   1.000  C 
  C10      1.0000 0.60603  0.32092  0.49719  Biso   1.000  C 
  C11      1.0000 0.76905  0.77202  0.22418  Biso   1.000  C 
  C12      1.0000 0.74343  0.78826  0.84110  Biso   1.000  C 
  C13      1.0000 0.93479  0.22320  0.42201  Biso   1.000  C 
  C14      1.0000 0.60483  0.79811  0.04712  Biso   1.000  C 
  C15      1.0000 0.26912  0.27181  0.22435  Biso   1.000  C 
  C16      1.0000 0.72851  0.74751  0.18389  Biso   1.000  C 
  C17      1.0000 0.22857  0.24696  0.18445  Biso   1.000  C 
  C18      1.0000 0.71512  0.75527  0.99146  Biso   1.000  C 
  C19      1.0000 0.21511  0.25473  0.99214  Biso   1.000  C 
  C20      1.0000 0.67186  0.72891  0.93909  Biso   1.000  C 
  C21      1.0000 0.17182  0.22779  0.94026  Biso   1.000  C 
  C22      1.0000 0.17356  0.75225  0.41829  Biso   1.000  C 
  C23      1.0000 0.67359  0.25291  0.41759  Biso   1.000  C 
  C24      1.0000 0.26743  0.82132  0.71890  Biso   1.000  C 
  C25      1.0000 0.43555  0.28332  0.86455  Biso   1.000  C 
  C26      1.0000 0.93556  0.78179  0.86566  Biso   1.000  C 
  C27      1.0000 0.84063  0.83162  0.12618  Biso   1.000  C 
  C28      1.0000 0.40672  0.74228  0.56571  Biso   1.000  C 
  C29      1.0000 0.29737  0.30527  0.07373  Biso   1.000  C 
  C30      1.0000 0.90666  0.24103  0.56716  Biso   1.000  C 
  C31      1.0000 0.92812  0.34015  0.71074  Biso   1.000  C 
  C32      1.0000 0.08448  0.72099  0.35504  Biso   1.000  C 
  C33      1.0000 0.07692  0.27903  0.20035  Biso   1.000  C 
  C34      1.0000 0.57690  0.78017  0.19860  Biso   1.000  C 
  C35      1.0000 0.76735  0.32096  0.71921  Biso   1.000  C 
  C36      1.0000 0.22740  0.81382  0.66813  Biso   1.000  C 
  C37      1.0000 0.72734  0.31385  0.66801  Biso   1.000  C 
  C38      1.0000 0.21598  0.77285  0.48042  Biso   1.000  C 
  C39      1.0000 0.10481  0.29646  0.04870  Biso   1.000  C 
  C40      1.0000 0.58402  0.87661  0.88152  Biso   1.000  C 
  C41      1.0000 0.42815  0.84187  0.70911  Biso   1.000  C 
  C42      1.0000 0.43486  0.72415  0.42070  Biso   1.000  C 
  C43      1.0000 0.10601  0.81936  0.49885  Biso   1.000  C 
  C44      1.0000 0.58453  0.22208  0.35356  Biso   1.000  C 
  C45      1.0000 0.74527  0.23878  0.34603  Biso   1.000  C 
  C46      1.0000 0.28525  0.74567  0.39692  Biso   1.000  C 
  C47      1.0000 0.24522  0.73825  0.34613  Biso   1.000  C 
  C48      1.0000 0.78529  0.24590  0.39722  Biso   1.000  C 
  C49      1.0000 0.79664  0.28658  0.58508  Biso   1.000  C 
  C50      1.0000 0.33911  0.80835  0.64639  Biso   1.000  C 
  C51      1.0000 0.83905  0.30764  0.64737  Biso   1.000  C 
  C52      1.0000 0.92857  0.68633  0.18295  Biso   1.000  C 
  C53      1.0000 0.42860  0.18706  0.18175  Biso   1.000  C 
  C54      1.0000 0.90767  0.76392  0.01735  Biso   1.000  C 
  C55      1.0000 0.40767  0.26493  0.01632  Biso   1.000  C 
  C56      1.0000 0.71599  0.27327  0.48013  Biso   1.000  C 
  Co1      1.0000 0.50601  0.00029  0.28527  Biso   1.000  Co
  Co2      1.0000 0.00597  0.49918  0.28680  Biso   1.000  Co
  Co3      1.0000 0.50663  0.06470  0.77738  Biso   1.000  Co
  Co4      1.0000 0.00662  0.56288  0.77905  Biso   1.000  Co
  H1       1.0000 0.80515  0.84174  0.76118  Biso   1.000  H 
  H2       1.0000 0.08203  0.90164  0.78229  Biso   1.000  H 
  H3       1.0000 0.65730  0.46407  0.60979  Biso   1.000  H 
  H4       1.0000 0.23293  0.29716  0.69227  Biso   1.000  H 
  H5       1.0000 0.77664  0.35178  0.86451  Biso   1.000  H 
  H6       1.0000 0.27954  0.26289  0.37358  Biso   1.000  H 
  H7       1.0000 0.09411  0.40959  0.73411  Biso   1.000  H 
  H8       1.0000 0.93172  0.83322  0.71258  Biso   1.000  H 
  H9       1.0000 0.43169  0.33511  0.71155  Biso   1.000  H 
  H10      1.0000 0.91788  0.37912  0.84895  Biso   1.000  H 
  H11      1.0000 0.73308  0.79704  0.69178  Biso   1.000  H 
  H12      1.0000 0.43083  0.65895  0.28288  Biso   1.000  H 
  H13      1.0000 0.35548  0.59755  0.45399  Biso   1.000  H 
  H14      1.0000 0.85542  0.09677  0.45505  Biso   1.000  H 
  H15      1.0000 0.77940  0.76311  0.37350  Biso   1.000  H 
  H16      1.0000 0.59423  0.91232  0.73266  Biso   1.000  H 
  H17      1.0000 0.58065  0.72807  0.35163  Biso   1.000  H 
  H18      1.0000 0.08072  0.22746  0.35344  Biso   1.000  H 
  H19      1.0000 0.41790  0.88114  0.84718  Biso   1.000  H 
  H20      1.0000 0.30503  0.34241  0.76098  Biso   1.000  H 
  H21      1.0000 0.70731  0.71876  0.30410  Biso   1.000  H 
  H22      1.0000 0.58200  0.40431  0.78010  Biso   1.000  H 
  H23      1.0000 0.30760  0.72284  0.28921  Biso   1.000  H 
  H24      1.0000 0.80768  0.22321  0.28969  Biso   1.000  H 
  H25      1.0000 0.73600  0.20810  0.20069  Biso   1.000  H 
  H26      1.0000 0.23587  0.70727  0.20096  Biso   1.000  H 
  H27      1.0000 0.70495  0.33660  0.77551  Biso   1.000  H 
  H28      1.0000 0.20505  0.83664  0.77584  Biso   1.000  H 
  H29      1.0000 0.91842  0.65079  0.33192  Biso   1.000  H 
  H30      1.0000 0.41846  0.15105  0.33072  Biso   1.000  H 
  H31      1.0000 0.27677  0.85247  0.86404  Biso   1.000  H 
  H32      1.0000 0.15728  0.96263  0.61125  Biso   1.000  H 
  H33      1.0000 0.15779  0.36546  0.18171  Biso   1.000  H 
  H34      1.0000 0.65780  0.86651  0.18053  Biso   1.000  H 
  H35      1.0000 0.35469  0.19600  0.88327  Biso   1.000  H 
  H36      1.0000 0.85472  0.69548  0.88395  Biso   1.000  H 
  H37      1.0000 0.20743  0.21799  0.30488  Biso   1.000  H 
  H38      1.0000 0.09468  0.68212  0.21670  Biso   1.000  H 
  H39      1.0000 0.93074  0.15837  0.28406  Biso   1.000  H 
  H40      1.0000 0.59475  0.18270  0.21546  Biso   1.000  H 
  N1       1.0000 0.04215  0.74594  0.59329  Biso   1.000  N 
  N2       1.0000 0.96623  0.38737  0.65014  Biso   1.000  N 
  N3       1.0000 0.97051  0.31549  0.47264  Biso   1.000  N 
  N4       1.0000 0.04204  0.34994  0.13122  Biso   1.000  N 
  N5       1.0000 0.46626  0.88902  0.64855  Biso   1.000  N 
  N6       1.0000 0.54639  0.17573  0.41396  Biso   1.000  N 
  N7       1.0000 0.54214  0.24787  0.59138  Biso   1.000  N 
  N8       1.0000 0.14729  0.86284  0.51018  Biso   1.000  N 
  N9       1.0000 0.04640  0.40833  0.93581  Biso   1.000  N 
  N10      1.0000 0.04636  0.67443  0.41559  Biso   1.000  N 
  N11      1.0000 0.47056  0.81667  0.47126  Biso   1.000  N 
  N12      1.0000 0.64732  0.36415  0.50880  Biso   1.000  N 
  N13      1.0000 0.97047  0.71141  0.93474  Biso   1.000  N 
  N14      1.0000 0.36645  0.28151  0.99075  Biso   1.000  N 
  N15      1.0000 0.47048  0.21296  0.93338  Biso   1.000  N 
  N16      1.0000 0.86538  0.19696  0.55588  Biso   1.000  N 
  N17      1.0000 0.96614  0.65294  0.13013  Biso   1.000  N 
  N18      1.0000 0.46617  0.15402  0.12873  Biso   1.000  N 
  N19      1.0000 0.64603  0.78073  0.07323  Biso   1.000  N 
  N20      1.0000 0.86646  0.78082  0.99156  Biso   1.000  N 
  N21      1.0000 0.14601  0.27941  0.07460  Biso   1.000  N 
  N22      1.0000 0.54204  0.85133  0.12943  Biso   1.000  N 
  N23      1.0000 0.54646  0.91042  0.93415  Biso   1.000  N 
  N24      1.0000 0.36544  0.69797  0.55463  Biso   1.000  N 
  O1       1.0000 0.66319  0.13609  0.28888  Biso   1.000  O 
  O2       1.0000 0.16314  0.63577  0.28935  Biso   1.000  O 
  O3       1.0000 0.34947  0.92562  0.77482  Biso   1.000  O 
  O4       1.0000 0.84940  0.42469  0.77596  Biso   1.000  O 
  O5       1.0000 0.85176  0.89344  0.28426  Biso   1.000  O 
  O6       1.0000 0.66074  0.66636  0.78128  Biso   1.000  O 
  O7       1.0000 0.16066  0.16484  0.78266  Biso   1.000  O 
  O8       1.0000 0.35182  0.39389  0.28363  Biso   1.000  O 
