data_image0
_cell_length_a       33.5479
_cell_length_b       6.67477
_cell_length_c       6.83202
_cell_angle_alpha    89.9672
_cell_angle_beta     87.4341
_cell_angle_gamma    89.9983

_symmetry_space_group_name_H-M    "P 1"
_symmetry_int_tables_number       1

loop_
  _symmetry_equiv_pos_as_xyz
  'x, y, z'

loop_
  _atom_site_label
  _atom_site_occupancy
  _atom_site_fract_x
  _atom_site_fract_y
  _atom_site_fract_z
  _atom_site_thermal_displace_type
  _atom_site_B_iso_or_equiv
  _atom_site_type_symbol
  C1       1.0000 0.86163  0.24014  0.03237  Biso   1.000  C 
  C2       1.0000 0.57616  0.71950  0.61096  Biso   1.000  C 
  C3       1.0000 0.83662  0.31483  0.18666  Biso   1.000  C 
  C4       1.0000 0.20811  0.27022  0.66166  Biso   1.000  C 
  C5       1.0000 0.16692  0.26459  0.65036  Biso   1.000  C 
  C6       1.0000 0.14897  0.23648  0.47002  Biso   1.000  C 
  C7       1.0000 0.36162  0.25992  0.53303  Biso   1.000  C 
  C8       1.0000 0.33659  0.18552  0.68747  Biso   1.000  C 
  C9       1.0000 0.84330  0.83329  0.36545  Biso   1.000  C 
  C10      1.0000 0.80205  0.82995  0.35230  Biso   1.000  C 
  C11      1.0000 0.92644  0.35584  0.18281  Biso   1.000  C 
  C12      1.0000 0.08466  0.35127  0.31403  Biso   1.000  C 
  C13      1.0000 0.77712  0.24581  0.00600  Biso   1.000  C 
  C14      1.0000 0.84331  0.16646  0.86579  Biso   1.000  C 
  C15      1.0000 0.60555  0.75354  0.46147  Biso   1.000  C 
  C16      1.0000 0.14897  0.76359  0.96977  Biso   1.000  C 
  C17      1.0000 0.29542  0.18275  0.67417  Biso   1.000  C 
  C18      1.0000 0.64896  0.73637  0.47061  Biso   1.000  C 
  C19      1.0000 0.08465  0.64886  0.81379  Biso   1.000  C 
  C20      1.0000 0.60555  0.24639  0.96127  Biso   1.000  C 
  C21      1.0000 0.43440  0.71977  0.89000  Biso   1.000  C 
  C22      1.0000 0.58460  0.14879  0.81495  Biso   1.000  C 
  C23      1.0000 0.67409  0.28620  0.80171  Biso   1.000  C 
  C24      1.0000 0.10557  0.25362  0.46053  Biso   1.000  C 
  C25      1.0000 0.93440  0.78027  0.38852  Biso   1.000  C 
  C26      1.0000 0.21543  0.78040  0.81281  Biso   1.000  C 
  C27      1.0000 0.23337  0.75192  0.99300  Biso   1.000  C 
  C28      1.0000 0.64895  0.26343  0.97046  Biso   1.000  C 
  C29      1.0000 0.66695  0.23534  0.15070  Biso   1.000  C 
  C30      1.0000 0.70815  0.22969  0.16174  Biso   1.000  C 
  C31      1.0000 0.42640  0.85610  0.18382  Biso   1.000  C 
  C32      1.0000 0.57615  0.28047  0.11069  Biso   1.000  C 
  C33      1.0000 0.58460  0.85114  0.31506  Biso   1.000  C 
  C34      1.0000 0.27712  0.25417  0.50633  Biso   1.000  C 
  C35      1.0000 0.40506  0.24248  0.53909  Biso   1.000  C 
  C36      1.0000 0.43440  0.28038  0.38974  Biso   1.000  C 
  C37      1.0000 0.20809  0.72993  0.16155  Biso   1.000  C 
  C38      1.0000 0.42641  0.14403  0.68371  Biso   1.000  C 
  C39      1.0000 0.30209  0.66993  0.85304  Biso   1.000  C 
  C40      1.0000 0.30208  0.33006  0.35286  Biso   1.000  C 
  C41      1.0000 0.34333  0.33326  0.36617  Biso   1.000  C 
  C42      1.0000 0.86163  0.75991  0.53218  Biso   1.000  C 
  C43      1.0000 0.83664  0.68529  0.68666  Biso   1.000  C 
  C44      1.0000 0.79546  0.68242  0.67356  Biso   1.000  C 
  C45      1.0000 0.34333  0.66676  0.86641  Biso   1.000  C 
  C46      1.0000 0.77713  0.75392  0.50585  Biso   1.000  C 
  C47      1.0000 0.93438  0.21986  0.88881  Biso   1.000  C 
  C48      1.0000 0.73337  0.25174  0.99300  Biso   1.000  C 
  C49      1.0000 0.71537  0.28022  0.81294  Biso   1.000  C 
  C50      1.0000 0.07615  0.21949  0.60986  Biso   1.000  C 
  C51      1.0000 0.90507  0.25758  0.03827  Biso   1.000  C 
  C52      1.0000 0.16690  0.73557  0.15018  Biso   1.000  C 
  C53      1.0000 0.10557  0.74647  0.96023  Biso   1.000  C 
  C54      1.0000 0.90508  0.74258  0.53805  Biso   1.000  C 
  C55      1.0000 0.17415  0.78637  0.80123  Biso   1.000  C 
  C56      1.0000 0.33658  0.81490  0.18737  Biso   1.000  C 
  C57      1.0000 0.23338  0.24815  0.49310  Biso   1.000  C 
  C58      1.0000 0.40505  0.75772  0.03926  Biso   1.000  C 
  C59      1.0000 0.21542  0.21958  0.31299  Biso   1.000  C 
  C60      1.0000 0.29540  0.81755  0.17401  Biso   1.000  C 
  C61      1.0000 0.67407  0.71348  0.30184  Biso   1.000  C 
  C62      1.0000 0.71536  0.71937  0.31297  Biso   1.000  C 
  C63      1.0000 0.17414  0.21361  0.30147  Biso   1.000  C 
  C64      1.0000 0.27711  0.74595  0.00631  Biso   1.000  C 
  C65      1.0000 0.66697  0.76444  0.65076  Biso   1.000  C 
  C66      1.0000 0.70817  0.77000  0.66170  Biso   1.000  C 
  C67      1.0000 0.73338  0.74790  0.49294  Biso   1.000  C 
  C68      1.0000 0.92645  0.64429  0.68267  Biso   1.000  C 
  C69      1.0000 0.80206  0.16967  0.85264  Biso   1.000  C 
  C70      1.0000 0.07614  0.78057  0.10951  Biso   1.000  C 
  C71      1.0000 0.36162  0.74031  0.03314  Biso   1.000  C 
  C72      1.0000 0.79545  0.31751  0.17356  Biso   1.000  C 
  H1       1.0000 0.36154  0.60716  0.74386  Biso   1.000  H 
  H2       1.0000 0.73406  0.30215  0.67992  Biso   1.000  H 
  H3       1.0000 0.22089  0.70141  0.30277  Biso   1.000  H 
  H4       1.0000 0.77723  0.38111  0.29418  Biso   1.000  H 
  H5       1.0000 0.07870  0.85205  0.25135  Biso   1.000  H 
  H6       1.0000 0.28913  0.60994  0.72188  Biso   1.000  H 
  H7       1.0000 0.66113  0.31140  0.66019  Biso   1.000  H 
  H8       1.0000 0.09579  0.59194  0.67297  Biso   1.000  H 
  H9       1.0000 0.93165  0.14927  0.74675  Biso   1.000  H 
  H10      1.0000 0.34932  0.87567  0.31879  Biso   1.000  H 
  H11      1.0000 0.86149  0.10674  0.74322  Biso   1.000  H 
  H12      1.0000 0.91595  0.58715  0.82442  Biso   1.000  H 
  H13      1.0000 0.66111  0.68827  0.16038  Biso   1.000  H 
  H14      1.0000 0.14812  0.71075  0.28242  Biso   1.000  H 
  H15      1.0000 0.59572  0.09185  0.67409  Biso   1.000  H 
  H16      1.0000 0.22091  0.29887  0.80284  Biso   1.000  H 
  H17      1.0000 0.91594  0.41291  0.32451  Biso   1.000  H 
  H18      1.0000 0.73404  0.69738  0.17997  Biso   1.000  H 
  H19      1.0000 0.41590  0.08680  0.82538  Biso   1.000  H 
  H20      1.0000 0.27716  0.88106  0.29459  Biso   1.000  H 
  H21      1.0000 0.78907  0.10960  0.72159  Biso   1.000  H 
  H22      1.0000 0.09580  0.40826  0.17318  Biso   1.000  H 
  H23      1.0000 0.64821  0.21043  0.28305  Biso   1.000  H 
  H24      1.0000 0.14814  0.28950  0.78258  Biso   1.000  H 
  H25      1.0000 0.72099  0.20106  0.30283  Biso   1.000  H 
  H26      1.0000 0.27718  0.11936  0.79490  Biso   1.000  H 
  H27      1.0000 0.41587  0.91331  0.32540  Biso   1.000  H 
  H28      1.0000 0.86148  0.89285  0.24275  Biso   1.000  H 
  H29      1.0000 0.78906  0.88981  0.22111  Biso   1.000  H 
  H30      1.0000 0.84942  0.62461  0.81807  Biso   1.000  H 
  H31      1.0000 0.43168  0.35110  0.24765  Biso   1.000  H 
  H32      1.0000 0.64825  0.78938  0.78313  Biso   1.000  H 
  H33      1.0000 0.16124  0.18837  0.15988  Biso   1.000  H 
  H34      1.0000 0.43168  0.64908  0.74798  Biso   1.000  H 
  H35      1.0000 0.72103  0.79859  0.80272  Biso   1.000  H 
  H36      1.0000 0.57875  0.64798  0.75283  Biso   1.000  H 
  H37      1.0000 0.23416  0.19761  0.18016  Biso   1.000  H 
  H38      1.0000 0.07871  0.14794  0.75173  Biso   1.000  H 
  H39      1.0000 0.16125  0.81154  0.65958  Biso   1.000  H 
  H40      1.0000 0.84940  0.37573  0.31793  Biso   1.000  H 
  H41      1.0000 0.59571  0.90805  0.17413  Biso   1.000  H 
  H42      1.0000 0.93165  0.85096  0.24643  Biso   1.000  H 
  H43      1.0000 0.57873  0.35195  0.25250  Biso   1.000  H 
  H44      1.0000 0.77726  0.61885  0.79431  Biso   1.000  H 
  H45      1.0000 0.23417  0.80234  0.67995  Biso   1.000  H 
  H46      1.0000 0.34934  0.12495  0.81902  Biso   1.000  H 
  H47      1.0000 0.36153  0.39269  0.24347  Biso   1.000  H 
  H48      1.0000 0.28912  0.38989  0.22157  Biso   1.000  H 
  N1       1.0000 0.54084  0.79675  0.55936  Biso   1.000  N 
  N2       1.0000 0.46987  0.20346  0.43946  Biso   1.000  N 
  N3       1.0000 0.96468  0.38145  0.12036  Biso   1.000  N 
  N4       1.0000 0.54632  0.87973  0.37670  Biso   1.000  N 
  N5       1.0000 0.96988  0.70337  0.43816  Biso   1.000  N 
  N6       1.0000 0.46465  0.11847  0.62140  Biso   1.000  N 
  N7       1.0000 0.04636  0.62029  0.87528  Biso   1.000  N 
  N8       1.0000 0.96469  0.61861  0.62023  Biso   1.000  N 
  N9       1.0000 0.46465  0.88160  0.12155  Biso   1.000  N 
  N10      1.0000 0.46988  0.79662  0.93970  Biso   1.000  N 
  N11      1.0000 0.54632  0.12026  0.87659  Biso   1.000  N 
  N12      1.0000 0.04636  0.37979  0.37548  Biso   1.000  N 
  N13      1.0000 0.04084  0.29672  0.55808  Biso   1.000  N 
  N14      1.0000 0.04084  0.70332  0.05780  Biso   1.000  N 
  N15      1.0000 0.54083  0.20326  0.05913  Biso   1.000  N 
  N16      1.0000 0.96987  0.29670  0.93840  Biso   1.000  N 
  Zn1      1.0000 0.50551  0.94874  0.74965  Biso   1.000  Zn
  Zn2      1.0000 0.50551  0.05131  0.24960  Biso   1.000  Zn
  Zn3      1.0000 0.00553  0.55126  0.24827  Biso   1.000  Zn
  Zn4      1.0000 0.00553  0.44880  0.74833  Biso   1.000  Zn
