data_image0
_cell_length_a       24.3063
_cell_length_b       6.00787
_cell_length_c       7.01787
_cell_angle_alpha    90.1876
_cell_angle_beta     91.665
_cell_angle_gamma    90.0049

_symmetry_space_group_name_H-M    "P 1"
_symmetry_int_tables_number       1

loop_
  _symmetry_equiv_pos_as_xyz
  'x, y, z'

loop_
  _atom_site_label
  _atom_site_occupancy
  _atom_site_fract_x
  _atom_site_fract_y
  _atom_site_fract_z
  _atom_site_thermal_displace_type
  _atom_site_B_iso_or_equiv
  _atom_site_type_symbol
  C1       1.0000 0.37413  0.71817  0.77362  Biso   1.000  C 
  C2       1.0000 0.57149  0.28311  0.51629  Biso   1.000  C 
  C3       1.0000 0.58076  0.83314  0.31498  Biso   1.000  C 
  C4       1.0000 0.86521  0.66753  0.97454  Biso   1.000  C 
  C5       1.0000 0.57178  0.71798  0.01484  Biso   1.000  C 
  C6       1.0000 0.07144  0.78345  0.51620  Biso   1.000  C 
  C7       1.0000 0.61090  0.74415  0.16486  Biso   1.000  C 
  C8       1.0000 0.27580  0.26568  0.13266  Biso   1.000  C 
  C9       1.0000 0.08065  0.66785  0.81549  Biso   1.000  C 
  C10      1.0000 0.58073  0.16720  0.81549  Biso   1.000  C 
  C11      1.0000 0.61070  0.25736  0.66591  Biso   1.000  C 
  C12      1.0000 0.11098  0.24479  0.16456  Biso   1.000  C 
  C13      1.0000 0.83494  0.24448  0.62409  Biso   1.000  C 
  C14      1.0000 0.77547  0.23870  0.63312  Biso   1.000  C 
  C15      1.0000 0.67016  0.26495  0.65744  Biso   1.000  C 
  C16      1.0000 0.67038  0.73824  0.15637  Biso   1.000  C 
  C17      1.0000 0.07185  0.21850  0.01459  Biso   1.000  C 
  C18      1.0000 0.33528  0.25808  0.12453  Biso   1.000  C 
  C19      1.0000 0.87419  0.21777  0.77343  Biso   1.000  C 
  C20      1.0000 0.11063  0.75800  0.66593  Biso   1.000  C 
  C21      1.0000 0.27540  0.73960  0.63339  Biso   1.000  C 
  C22      1.0000 0.86496  0.33376  0.47430  Biso   1.000  C 
  C23      1.0000 0.36530  0.16815  0.97449  Biso   1.000  C 
  C24      1.0000 0.17047  0.23916  0.15602  Biso   1.000  C 
  C25      1.0000 0.33487  0.74509  0.62432  Biso   1.000  C 
  C26      1.0000 0.08083  0.33364  0.31473  Biso   1.000  C 
  C27      1.0000 0.17009  0.76587  0.65760  Biso   1.000  C 
  C28      1.0000 0.37442  0.28328  0.27458  Biso   1.000  C 
  C29      1.0000 0.36490  0.83430  0.47452  Biso   1.000  C 
  C30      1.0000 0.77572  0.76470  0.13290  Biso   1.000  C 
  C31      1.0000 0.83519  0.75738  0.12462  Biso   1.000  C 
  C32      1.0000 0.87436  0.78288  0.27456  Biso   1.000  C 
  Co1      1.0000 0.47296  0.96455  0.89466  Biso   1.000  Co
  Co2      1.0000 0.47291  0.03468  0.39487  Biso   1.000  Co
  Co3      1.0000 0.97291  0.53462  0.39469  Biso   1.000  Co
  Co4      1.0000 0.97296  0.46465  0.89454  Biso   1.000  Co
  H1       1.0000 0.09537  0.62515  0.95789  Biso   1.000  H 
  H2       1.0000 0.59539  0.87610  0.45768  Biso   1.000  H 
  H3       1.0000 0.07725  0.84260  0.37223  Biso   1.000  H 
  H4       1.0000 0.57729  0.34236  0.37234  Biso   1.000  H 
  H5       1.0000 0.36856  0.34225  0.41890  Biso   1.000  H 
  H6       1.0000 0.86838  0.15866  0.91741  Biso   1.000  H 
  H7       1.0000 0.57770  0.65927  0.87048  Biso   1.000  H 
  H8       1.0000 0.86851  0.84187  0.41889  Biso   1.000  H 
  H9       1.0000 0.07777  0.15987  0.87021  Biso   1.000  H 
  H10      1.0000 0.36831  0.65904  0.91758  Biso   1.000  H 
  H11      1.0000 0.09547  0.37664  0.45741  Biso   1.000  H 
  H12      1.0000 0.59548  0.12429  0.95781  Biso   1.000  H 
  H13      1.0000 0.85021  0.37699  0.33206  Biso   1.000  H 
  H14      1.0000 0.85052  0.62478  0.83187  Biso   1.000  H 
  H15      1.0000 0.35015  0.87764  0.33231  Biso   1.000  H 
  H16      1.0000 0.35063  0.12553  0.83178  Biso   1.000  H 
  N1       1.0000 0.92355  0.70427  0.22005  Biso   1.000  N 
  N2       1.0000 0.42341  0.79546  0.71912  Biso   1.000  N 
  N3       1.0000 0.41753  0.86717  0.53293  Biso   1.000  N 
  N4       1.0000 0.19266  0.83770  0.49463  Biso   1.000  N 
  N5       1.0000 0.41778  0.13339  0.03341  Biso   1.000  N 
  N6       1.0000 0.42360  0.20446  0.22017  Biso   1.000  N 
  N7       1.0000 0.91757  0.36689  0.53276  Biso   1.000  N 
  N8       1.0000 0.69933  0.82274  0.30813  Biso   1.000  N 
  N9       1.0000 0.19309  0.16940  0.99209  Biso   1.000  N 
  N10      1.0000 0.91771  0.63306  0.03334  Biso   1.000  N 
  N11      1.0000 0.69300  0.66822  0.99250  Biso   1.000  N 
  N12      1.0000 0.19939  0.32390  0.30773  Biso   1.000  N 
  N13      1.0000 0.02253  0.29579  0.06917  Biso   1.000  N 
  N14      1.0000 0.69921  0.18138  0.80886  Biso   1.000  N 
  N15      1.0000 0.74674  0.68126  0.98076  Biso   1.000  N 
  N16      1.0000 0.02827  0.36684  0.25597  Biso   1.000  N 
  N17      1.0000 0.02227  0.70455  0.57030  Biso   1.000  N 
  N18      1.0000 0.69271  0.33663  0.49438  Biso   1.000  N 
  N19      1.0000 0.25287  0.66967  0.79707  Biso   1.000  N 
  N20      1.0000 0.02815  0.63321  0.75656  Biso   1.000  N 
  N21      1.0000 0.75295  0.16848  0.79671  Biso   1.000  N 
  N22      1.0000 0.19913  0.68258  0.80915  Biso   1.000  N 
  N23      1.0000 0.24684  0.18247  0.98042  Biso   1.000  N 
  N24      1.0000 0.52821  0.13282  0.75666  Biso   1.000  N 
  N25      1.0000 0.92346  0.29529  0.71897  Biso   1.000  N 
  N26      1.0000 0.24639  0.82467  0.48250  Biso   1.000  N 
  N27      1.0000 0.52231  0.20436  0.57046  Biso   1.000  N 
  N28      1.0000 0.52821  0.86656  0.25616  Biso   1.000  N 
  N29      1.0000 0.75308  0.83582  0.29639  Biso   1.000  N 
  N30      1.0000 0.52248  0.79550  0.06936  Biso   1.000  N 
  N31      1.0000 0.25314  0.33701  0.29604  Biso   1.000  N 
  N32      1.0000 0.74645  0.32363  0.48220  Biso   1.000  N 
