data_image0
_cell_length_a       6.53868
_cell_length_b       22.9336
_cell_length_c       26.3346
_cell_angle_alpha    89.989
_cell_angle_beta     91.3185
_cell_angle_gamma    90.0494

_symmetry_space_group_name_H-M    "P 1"
_symmetry_int_tables_number       1

loop_
  _symmetry_equiv_pos_as_xyz
  'x, y, z'

loop_
  _atom_site_label
  _atom_site_occupancy
  _atom_site_fract_x
  _atom_site_fract_y
  _atom_site_fract_z
  _atom_site_thermal_displace_type
  _atom_site_B_iso_or_equiv
  _atom_site_type_symbol
  C1       1.0000 0.21097  0.13332  0.56322  Biso   1.000  C 
  C2       1.0000 0.38476  0.13609  0.59586  Biso   1.000  C 
  C3       1.0000 0.50835  0.09006  0.57900  Biso   1.000  C 
  C4       1.0000 0.24642  0.75640  0.78634  Biso   1.000  C 
  C5       1.0000 0.28869  0.71760  0.82577  Biso   1.000  C 
  C6       1.0000 0.14233  0.67658  0.84123  Biso   1.000  C 
  C7       1.0000 0.95192  0.67642  0.81510  Biso   1.000  C 
  C8       1.0000 0.91028  0.71504  0.77551  Biso   1.000  C 
  C9       1.0000 0.05648  0.75610  0.76007  Biso   1.000  C 
  C10      1.0000 0.86208  0.42210  0.91434  Biso   1.000  C 
  C11      1.0000 0.68575  0.41796  0.88285  Biso   1.000  C 
  C12      1.0000 0.55849  0.46261  0.90055  Biso   1.000  C 
  C13      1.0000 0.55814  0.29723  0.76061  Biso   1.000  C 
  C14      1.0000 0.40188  0.31769  0.79188  Biso   1.000  C 
  C15      1.0000 0.44334  0.35660  0.83128  Biso   1.000  C 
  C16      1.0000 0.56185  0.08982  0.39972  Biso   1.000  C 
  C17      1.0000 0.79984  0.35634  0.81043  Biso   1.000  C 
  C18      1.0000 0.64323  0.37688  0.84148  Biso   1.000  C 
  C19      1.0000 0.51414  0.25625  0.71859  Biso   1.000  C 
  C20      1.0000 0.20798  0.42228  0.06476  Biso   1.000  C 
  C21      1.0000 0.77071  0.85646  0.66856  Biso   1.000  C 
  C22      1.0000 0.61825  0.17659  0.66357  Biso   1.000  C 
  C23      1.0000 0.42807  0.17689  0.63733  Biso   1.000  C 
  C24      1.0000 0.28214  0.21801  0.65268  Biso   1.000  C 
  C25      1.0000 0.32454  0.25673  0.69216  Biso   1.000  C 
  C26      1.0000 0.81260  0.81747  0.70788  Biso   1.000  C 
  C27      1.0000 0.12720  0.85703  0.64770  Biso   1.000  C 
  C28      1.0000 0.92726  0.87720  0.63754  Biso   1.000  C 
  C29      1.0000 0.75801  0.31749  0.77098  Biso   1.000  C 
  C30      1.0000 0.16874  0.81798  0.68698  Biso   1.000  C 
  C31      1.0000 0.01249  0.79725  0.71818  Biso   1.000  C 
  C32      1.0000 0.01182  0.96288  0.57832  Biso   1.000  C 
  C33      1.0000 0.88450  0.91825  0.59618  Biso   1.000  C 
  C34      1.0000 0.71093  0.63330  0.06324  Biso   1.000  C 
  C35      1.0000 0.70798  0.92228  0.56477  Biso   1.000  C 
  C36      1.0000 0.06185  0.58981  0.89971  Biso   1.000  C 
  C37      1.0000 0.65998  0.21514  0.70321  Biso   1.000  C 
  C38      1.0000 0.00834  0.59006  0.07901  Biso   1.000  C 
  C39      1.0000 0.18554  0.63584  0.88274  Biso   1.000  C 
  C40      1.0000 0.35931  0.63323  0.91538  Biso   1.000  C 
  C41      1.0000 0.74640  0.25640  0.28635  Biso   1.000  C 
  C42      1.0000 0.78868  0.21762  0.32578  Biso   1.000  C 
  C43      1.0000 0.64233  0.17659  0.34124  Biso   1.000  C 
  C44      1.0000 0.45193  0.17642  0.31510  Biso   1.000  C 
  C45      1.0000 0.36209  0.92210  0.41433  Biso   1.000  C 
  C46      1.0000 0.18577  0.91797  0.38284  Biso   1.000  C 
  C47      1.0000 0.05852  0.96263  0.40054  Biso   1.000  C 
  C48      1.0000 0.05811  0.79725  0.26060  Biso   1.000  C 
  C49      1.0000 0.90185  0.81772  0.29186  Biso   1.000  C 
  C50      1.0000 0.14322  0.87690  0.34147  Biso   1.000  C 
  C51      1.0000 0.29981  0.85637  0.31041  Biso   1.000  C 
  C52      1.0000 0.88471  0.63608  0.09587  Biso   1.000  C 
  C53      1.0000 0.25797  0.81752  0.27096  Biso   1.000  C 
  C54      1.0000 0.01410  0.75626  0.21858  Biso   1.000  C 
  C55      1.0000 0.94332  0.85663  0.33126  Biso   1.000  C 
  C56      1.0000 0.11820  0.67659  0.16359  Biso   1.000  C 
  C57      1.0000 0.15994  0.71515  0.20321  Biso   1.000  C 
  C58      1.0000 0.78211  0.71801  0.15267  Biso   1.000  C 
  C59      1.0000 0.92803  0.67688  0.13734  Biso   1.000  C 
  C60      1.0000 0.41030  0.21503  0.27551  Biso   1.000  C 
  C61      1.0000 0.55648  0.25609  0.26007  Biso   1.000  C 
  C62      1.0000 0.31258  0.31745  0.20787  Biso   1.000  C 
  C63      1.0000 0.27069  0.35644  0.16855  Biso   1.000  C 
  C64      1.0000 0.82451  0.75674  0.19215  Biso   1.000  C 
  C65      1.0000 0.62721  0.35703  0.14770  Biso   1.000  C 
  C66      1.0000 0.66874  0.31798  0.18698  Biso   1.000  C 
  C67      1.0000 0.51249  0.29724  0.21817  Biso   1.000  C 
  C68      1.0000 0.85931  0.13324  0.41539  Biso   1.000  C 
  C69      1.0000 0.68554  0.13585  0.38275  Biso   1.000  C 
  C70      1.0000 0.51181  0.46287  0.07832  Biso   1.000  C 
  C71      1.0000 0.38449  0.41824  0.09618  Biso   1.000  C 
  C72      1.0000 0.42726  0.37719  0.13753  Biso   1.000  C 
  Co1      1.0000 0.53512  0.01070  0.48950  Biso   1.000  Co
  Co2      1.0000 0.03511  0.51070  0.98950  Biso   1.000  Co
  Co3      1.0000 0.03502  0.04362  0.48934  Biso   1.000  Co
  Co4      1.0000 0.53501  0.54361  0.98934  Biso   1.000  Co
  H1       1.0000 0.06988  0.39592  0.06441  Biso   1.000  H 
  H2       1.0000 0.66314  0.47641  0.09155  Biso   1.000  H 
  H3       1.0000 0.07387  0.16002  0.56217  Biso   1.000  H 
  H4       1.0000 0.65777  0.07541  0.59256  Biso   1.000  H 
  H5       1.0000 0.41238  0.07511  0.38619  Biso   1.000  H 
  H6       1.0000 0.70955  0.78900  0.20202  Biso   1.000  H 
  H7       1.0000 0.74622  0.80145  0.28614  Biso   1.000  H 
  H8       1.0000 0.30745  0.71252  0.22328  Biso   1.000  H 
  H9       1.0000 0.38187  0.80376  0.24666  Biso   1.000  H 
  H10      1.0000 0.63314  0.72007  0.13323  Biso   1.000  H 
  H11      1.0000 0.93796  0.21954  0.34508  Biso   1.000  H 
  H12      1.0000 0.81981  0.87062  0.35563  Biso   1.000  H 
  H13      1.0000 0.90738  0.97611  0.38721  Biso   1.000  H 
  H14      1.0000 0.50009  0.89576  0.41479  Biso   1.000  H 
  H15      1.0000 0.36171  0.78860  0.77642  Biso   1.000  H 
  H16      1.0000 0.32444  0.80183  0.69268  Biso   1.000  H 
  H17      1.0000 0.75070  0.37120  0.12339  Biso   1.000  H 
  H18      1.0000 0.11500  0.37254  0.16255  Biso   1.000  H 
  H19      1.0000 0.33441  0.14516  0.32564  Biso   1.000  H 
  H20      1.0000 0.18872  0.30352  0.23214  Biso   1.000  H 
  H21      1.0000 0.45546  0.87257  0.31642  Biso   1.000  H 
  H22      1.0000 0.26255  0.21249  0.25552  Biso   1.000  H 
  H23      1.0000 0.23542  0.64525  0.15312  Biso   1.000  H 
  H24      1.0000 0.82444  0.30184  0.19268  Biso   1.000  H 
  H25      1.0000 0.20958  0.28898  0.70204  Biso   1.000  H 
  H26      1.0000 0.76252  0.71252  0.75553  Biso   1.000  H 
  H27      1.0000 0.99641  0.16001  0.41639  Biso   1.000  H 
  H28      1.0000 0.49641  0.66000  0.91639  Biso   1.000  H 
  H29      1.0000 0.86169  0.28861  0.27642  Biso   1.000  H 
  H30      1.0000 0.68874  0.80355  0.73216  Biso   1.000  H 
  H31      1.0000 0.15778  0.57542  0.09256  Biso   1.000  H 
  H32      1.0000 0.43799  0.71952  0.84506  Biso   1.000  H 
  H33      1.0000 0.83439  0.64517  0.82564  Biso   1.000  H 
  H34      1.0000 0.61502  0.87257  0.66257  Biso   1.000  H 
  H35      1.0000 0.25071  0.87120  0.62338  Biso   1.000  H 
  H36      1.0000 0.56988  0.89592  0.56441  Biso   1.000  H 
  H37      1.0000 0.91238  0.57510  0.88619  Biso   1.000  H 
  H38      1.0000 0.57381  0.66000  0.06219  Biso   1.000  H 
  H39      1.0000 0.16315  0.97641  0.59155  Biso   1.000  H 
  H40      1.0000 0.00009  0.39576  0.91480  Biso   1.000  H 
  H41      1.0000 0.31984  0.37059  0.85565  Biso   1.000  H 
  H42      1.0000 0.95549  0.37254  0.81645  Biso   1.000  H 
  H43      1.0000 0.40734  0.47609  0.88722  Biso   1.000  H 
  H44      1.0000 0.13316  0.22007  0.63324  Biso   1.000  H 
  H45      1.0000 0.88192  0.30373  0.74668  Biso   1.000  H 
  H46      1.0000 0.80751  0.21251  0.72328  Biso   1.000  H 
  H47      1.0000 0.24626  0.30142  0.78615  Biso   1.000  H 
  H48      1.0000 0.73550  0.14527  0.65310  Biso   1.000  H 
  N1       1.0000 0.73151  0.58941  0.02964  Biso   1.000  N 
  N2       1.0000 0.41692  0.49112  0.03944  Biso   1.000  N 
  N3       1.0000 0.83868  0.08940  0.44908  Biso   1.000  N 
  N4       1.0000 0.15327  0.99099  0.43939  Biso   1.000  N 
  N5       1.0000 0.33965  0.96557  0.44832  Biso   1.000  N 
  N6       1.0000 0.91473  0.56256  0.03958  Biso   1.000  N 
  N7       1.0000 0.65540  0.06245  0.43921  Biso   1.000  N 
  N8       1.0000 0.23038  0.46566  0.03067  Biso   1.000  N 
  N9       1.0000 0.73039  0.96566  0.53067  Biso   1.000  N 
  N10      1.0000 0.91694  0.99112  0.53944  Biso   1.000  N 
  N11      1.0000 0.65324  0.49098  0.93940  Biso   1.000  N 
  N12      1.0000 0.41474  0.06256  0.53957  Biso   1.000  N 
  N13      1.0000 0.23153  0.08942  0.52963  Biso   1.000  N 
  N14      1.0000 0.83963  0.46557  0.94833  Biso   1.000  N 
  N15      1.0000 0.15538  0.56245  0.93921  Biso   1.000  N 
  N16      1.0000 0.33867  0.58940  0.94908  Biso   1.000  N 
