data_image0
_cell_length_a       23.8193
_cell_length_b       20.0158
_cell_length_c       6.57484
_cell_angle_alpha    96.7194
_cell_angle_beta     102.142
_cell_angle_gamma    90.1273

_symmetry_space_group_name_H-M    "P 1"
_symmetry_int_tables_number       1

loop_
  _symmetry_equiv_pos_as_xyz
  'x, y, z'

loop_
  _atom_site_label
  _atom_site_occupancy
  _atom_site_fract_x
  _atom_site_fract_y
  _atom_site_fract_z
  _atom_site_thermal_displace_type
  _atom_site_B_iso_or_equiv
  _atom_site_type_symbol
  C1       1.0000 0.32645  0.78994  0.21725  Biso   1.000  C 
  C2       1.0000 0.26120  0.22288  0.17819  Biso   1.000  C 
  C3       1.0000 0.80660  0.68188  0.16200  Biso   1.000  C 
  C4       1.0000 0.59096  0.14500  0.63573  Biso   1.000  C 
  C5       1.0000 0.09116  0.64507  0.63778  Biso   1.000  C 
  C6       1.0000 0.30652  0.18173  0.16030  Biso   1.000  C 
  C7       1.0000 0.83667  0.68413  0.99656  Biso   1.000  C 
  C8       1.0000 0.33645  0.18384  0.99443  Biso   1.000  C 
  C9       1.0000 0.81881  0.72931  0.85197  Biso   1.000  C 
  C10      1.0000 0.62696  0.15012  0.49296  Biso   1.000  C 
  C11      1.0000 0.12709  0.65015  0.49476  Biso   1.000  C 
  C12      1.0000 0.60723  0.09684  0.33369  Biso   1.000  C 
  C13      1.0000 0.10720  0.59699  0.33533  Biso   1.000  C 
  C14      1.0000 0.31856  0.22902  0.84984  Biso   1.000  C 
  C15      1.0000 0.75373  0.81874  0.71946  Biso   1.000  C 
  C16      1.0000 0.25369  0.31882  0.71832  Biso   1.000  C 
  C17      1.0000 0.77242  0.77229  0.86596  Biso   1.000  C 
  C18      1.0000 0.27234  0.27223  0.86445  Biso   1.000  C 
  C19      1.0000 0.74250  0.76935  0.03295  Biso   1.000  C 
  C20      1.0000 0.24260  0.26944  0.03197  Biso   1.000  C 
  C21      1.0000 0.69605  0.81226  0.04677  Biso   1.000  C 
  C22      1.0000 0.19634  0.31258  0.04658  Biso   1.000  C 
  C23      1.0000 0.67808  0.85733  0.90191  Biso   1.000  C 
  C24      1.0000 0.17834  0.35771  0.90197  Biso   1.000  C 
  C25      1.0000 0.70818  0.85961  0.73658  Biso   1.000  C 
  C26      1.0000 0.92326  0.39551  0.26143  Biso   1.000  C 
  C27      1.0000 0.42294  0.89550  0.25909  Biso   1.000  C 
  C28      1.0000 0.88712  0.39070  0.40393  Biso   1.000  C 
  C29      1.0000 0.84066  0.34160  0.39170  Biso   1.000  C 
  C30      1.0000 0.34045  0.84154  0.39017  Biso   1.000  C 
  C31      1.0000 0.76114  0.72286  0.17939  Biso   1.000  C 
  C32      1.0000 0.90673  0.44421  0.56248  Biso   1.000  C 
  C33      1.0000 0.38694  0.89057  0.40201  Biso   1.000  C 
  C34      1.0000 0.09267  0.40303  0.05714  Biso   1.000  C 
  C35      1.0000 0.40676  0.94390  0.56099  Biso   1.000  C 
  C36      1.0000 0.20831  0.35991  0.73621  Biso   1.000  C 
  C37      1.0000 0.23103  0.79758  0.69377  Biso   1.000  C 
  C38      1.0000 0.18758  0.75078  0.67980  Biso   1.000  C 
  C39      1.0000 0.13023  0.40188  0.91712  Biso   1.000  C 
  C40      1.0000 0.62991  0.90145  0.91626  Biso   1.000  C 
  C41      1.0000 0.11031  0.45344  0.79393  Biso   1.000  C 
  C42      1.0000 0.61023  0.95309  0.79307  Biso   1.000  C 
  C43      1.0000 0.68740  0.25066  0.67896  Biso   1.000  C 
  C44      1.0000 0.17361  0.69917  0.50688  Biso   1.000  C 
  C45      1.0000 0.67347  0.19919  0.50561  Biso   1.000  C 
  C46      1.0000 0.20538  0.69718  0.35138  Biso   1.000  C 
  C47      1.0000 0.70534  0.19735  0.35039  Biso   1.000  C 
  C48      1.0000 0.59216  0.90261  0.05551  Biso   1.000  C 
  C49      1.0000 0.73094  0.29743  0.69377  Biso   1.000  C 
  C50      1.0000 0.25033  0.74445  0.36127  Biso   1.000  C 
  C51      1.0000 0.28307  0.74308  0.20351  Biso   1.000  C 
  C52      1.0000 0.80887  0.34340  0.54716  Biso   1.000  C 
  C53      1.0000 0.78326  0.24329  0.20386  Biso   1.000  C 
  C54      1.0000 0.90413  0.58793  0.10434  Biso   1.000  C 
  C55      1.0000 0.40405  0.08777  0.10256  Biso   1.000  C 
  C56      1.0000 0.88464  0.63974  0.98162  Biso   1.000  C 
  C57      1.0000 0.82673  0.29010  0.21841  Biso   1.000  C 
  C58      1.0000 0.92228  0.63835  0.84193  Biso   1.000  C 
  C59      1.0000 0.42199  0.13799  0.83946  Biso   1.000  C 
  C60      1.0000 0.30873  0.84349  0.54586  Biso   1.000  C 
  C61      1.0000 0.75039  0.24458  0.36120  Biso   1.000  C 
  C62      1.0000 0.76385  0.29614  0.53652  Biso   1.000  C 
  C63      1.0000 0.26380  0.79619  0.53607  Biso   1.000  C 
  C64      1.0000 0.38441  0.13943  0.97939  Biso   1.000  C 
  Co1      1.0000 0.00761  0.53946  0.70665  Biso   1.000  Co
  Co2      1.0000 0.50651  0.00125  0.18984  Biso   1.000  Co
  Co3      1.0000 0.50756  0.03929  0.70503  Biso   1.000  Co
  Co4      1.0000 0.00662  0.50135  0.19155  Biso   1.000  Co
  H1       1.0000 0.85091  0.28774  0.09425  Biso   1.000  H 
  H2       1.0000 0.89220  0.46010  0.70605  Biso   1.000  H 
  H3       1.0000 0.38861  0.07036  0.23182  Biso   1.000  H 
  H4       1.0000 0.92352  0.66906  0.71718  Biso   1.000  H 
  H5       1.0000 0.42313  0.16861  0.71444  Biso   1.000  H 
  H6       1.0000 0.62581  0.97066  0.66430  Biso   1.000  H 
  H7       1.0000 0.12562  0.47098  0.66459  Biso   1.000  H 
  H8       1.0000 0.59100  0.87191  0.18032  Biso   1.000  H 
  H9       1.0000 0.27304  0.70437  0.06885  Biso   1.000  H 
  H10      1.0000 0.31801  0.88239  0.68031  Biso   1.000  H 
  H11      1.0000 0.77327  0.20466  0.06892  Biso   1.000  H 
  H12      1.0000 0.81815  0.38217  0.68198  Biso   1.000  H 
  H13      1.0000 0.81984  0.64683  0.27715  Biso   1.000  H 
  H14      1.0000 0.24105  0.83631  0.82842  Biso   1.000  H 
  H15      1.0000 0.74092  0.33603  0.82876  Biso   1.000  H 
  H16      1.0000 0.19612  0.65825  0.21699  Biso   1.000  H 
  H17      1.0000 0.69609  0.15858  0.21556  Biso   1.000  H 
  H18      1.0000 0.66317  0.25308  0.80299  Biso   1.000  H 
  H19      1.0000 0.35053  0.78751  0.09281  Biso   1.000  H 
  H20      1.0000 0.16345  0.75328  0.80411  Biso   1.000  H 
  H21      1.0000 0.17474  0.30971  0.17641  Biso   1.000  H 
  H22      1.0000 0.19505  0.39498  0.62112  Biso   1.000  H 
  H23      1.0000 0.69488  0.89459  0.62123  Biso   1.000  H 
  H24      1.0000 0.39245  0.95960  0.70509  Biso   1.000  H 
  H25      1.0000 0.31977  0.14666  0.27542  Biso   1.000  H 
  H26      1.0000 0.42322  0.86536  0.11085  Biso   1.000  H 
  H27      1.0000 0.92373  0.36523  0.11360  Biso   1.000  H 
  H28      1.0000 0.12142  0.58144  0.19096  Biso   1.000  H 
  H29      1.0000 0.62160  0.08125  0.18963  Biso   1.000  H 
  H30      1.0000 0.09092  0.67503  0.78635  Biso   1.000  H 
  H31      1.0000 0.09175  0.37237  0.18224  Biso   1.000  H 
  H32      1.0000 0.88858  0.57047  0.23331  Biso   1.000  H 
  H33      1.0000 0.67429  0.80928  0.17613  Biso   1.000  H 
  H34      1.0000 0.27602  0.32163  0.59045  Biso   1.000  H 
  H35      1.0000 0.77615  0.82158  0.59181  Biso   1.000  H 
  H36      1.0000 0.34016  0.23180  0.71996  Biso   1.000  H 
  H37      1.0000 0.84055  0.73228  0.72258  Biso   1.000  H 
  H38      1.0000 0.23888  0.22014  0.30611  Biso   1.000  H 
  H39      1.0000 0.73872  0.72001  0.30701  Biso   1.000  H 
  H40      1.0000 0.59060  0.17503  0.78407  Biso   1.000  H 
  N1       1.0000 0.05295  0.59332  0.56729  Biso   1.000  N 
  N2       1.0000 0.55285  0.09314  0.56528  Biso   1.000  N 
  N3       1.0000 0.96134  0.44742  0.33139  Biso   1.000  N 
  N4       1.0000 0.46114  0.94730  0.32925  Biso   1.000  N 
  N5       1.0000 0.95093  0.47759  0.51703  Biso   1.000  N 
  N6       1.0000 0.45093  0.97728  0.51541  Biso   1.000  N 
  N7       1.0000 0.05362  0.45115  0.01856  Biso   1.000  N 
  N8       1.0000 0.46078  0.08961  0.87806  Biso   1.000  N 
  N9       1.0000 0.56313  0.06328  0.37911  Biso   1.000  N 
  N10      1.0000 0.56456  0.98223  0.85501  Biso   1.000  N 
  N11      1.0000 0.96097  0.58986  0.88021  Biso   1.000  N 
  N12      1.0000 0.44952  0.05836  0.03996  Biso   1.000  N 
  N13      1.0000 0.94960  0.55848  0.04171  Biso   1.000  N 
  N14      1.0000 0.06469  0.48251  0.85655  Biso   1.000  N 
  N15      1.0000 0.06307  0.56352  0.38088  Biso   1.000  N 
  N16      1.0000 0.55322  0.95082  0.01653  Biso   1.000  N 
