data_image0
_cell_length_a       25.5175
_cell_length_b       17.7246
_cell_length_c       6.77433
_cell_angle_alpha    90.1725
_cell_angle_beta     107.679
_cell_angle_gamma    90.0164

_symmetry_space_group_name_H-M    "P 1"
_symmetry_int_tables_number       1

loop_
  _symmetry_equiv_pos_as_xyz
  'x, y, z'

loop_
  _atom_site_label
  _atom_site_occupancy
  _atom_site_fract_x
  _atom_site_fract_y
  _atom_site_fract_z
  _atom_site_thermal_displace_type
  _atom_site_B_iso_or_equiv
  _atom_site_type_symbol
  C1       1.0000 0.60057  0.13726  0.72009  Biso   1.000  C 
  C2       1.0000 0.20822  0.21992  0.39932  Biso   1.000  C 
  C3       1.0000 0.81211  0.68380  0.11783  Biso   1.000  C 
  C4       1.0000 0.56488  0.87037  0.34290  Biso   1.000  C 
  C5       1.0000 0.36150  0.86990  0.63562  Biso   1.000  C 
  C6       1.0000 0.57849  0.07937  0.57601  Biso   1.000  C 
  C7       1.0000 0.39587  0.87030  0.50776  Biso   1.000  C 
  C8       1.0000 0.16653  0.73968  0.89453  Biso   1.000  C 
  C9       1.0000 0.14801  0.68545  0.73222  Biso   1.000  C 
  C10      1.0000 0.67641  0.17974  0.58704  Biso   1.000  C 
  C11      1.0000 0.72237  0.22581  0.59695  Biso   1.000  C 
  C12      1.0000 0.21105  0.78548  0.90818  Biso   1.000  C 
  C13      1.0000 0.70822  0.71992  0.39932  Biso   1.000  C 
  C14      1.0000 0.22021  0.27941  0.08985  Biso   1.000  C 
  C15      1.0000 0.17472  0.32622  0.08107  Biso   1.000  C 
  C16      1.0000 0.86150  0.36989  0.63560  Biso   1.000  C 
  C17      1.0000 0.07848  0.57938  0.57602  Biso   1.000  C 
  C18      1.0000 0.66420  0.76647  0.38691  Biso   1.000  C 
  C19      1.0000 0.89588  0.37029  0.50775  Biso   1.000  C 
  C20      1.0000 0.64637  0.82113  0.22646  Biso   1.000  C 
  C21      1.0000 0.89485  0.63655  0.00616  Biso   1.000  C 
  C22      1.0000 0.38121  0.07746  0.27302  Biso   1.000  C 
  C23      1.0000 0.59969  0.87042  0.21666  Biso   1.000  C 
  C24      1.0000 0.85956  0.63566  0.13051  Biso   1.000  C 
  C25      1.0000 0.71105  0.28548  0.90816  Biso   1.000  C 
  C26      1.0000 0.22236  0.72581  0.59698  Biso   1.000  C 
  C27      1.0000 0.17640  0.67975  0.58706  Biso   1.000  C 
  C28      1.0000 0.07876  0.42952  0.07655  Biso   1.000  C 
  C29      1.0000 0.64801  0.18544  0.73220  Biso   1.000  C 
  C30      1.0000 0.66653  0.23967  0.89452  Biso   1.000  C 
  C31      1.0000 0.79611  0.26663  0.46283  Biso   1.000  C 
  C32      1.0000 0.35956  0.13565  0.13049  Biso   1.000  C 
  C33      1.0000 0.88318  0.42823  0.77876  Biso   1.000  C 
  C34      1.0000 0.25171  0.72063  0.44967  Biso   1.000  C 
  C35      1.0000 0.38318  0.92823  0.77878  Biso   1.000  C 
  C36      1.0000 0.29396  0.23800  0.95623  Biso   1.000  C 
  C37      1.0000 0.57876  0.92952  0.07655  Biso   1.000  C 
  C38      1.0000 0.39485  0.13656  0.00615  Biso   1.000  C 
  C39      1.0000 0.06489  0.37037  0.34290  Biso   1.000  C 
  C40      1.0000 0.09969  0.37042  0.21666  Biso   1.000  C 
  C41      1.0000 0.31211  0.18380  0.11782  Biso   1.000  C 
  C42      1.0000 0.16420  0.26647  0.38691  Biso   1.000  C 
  C43      1.0000 0.67472  0.82622  0.08108  Biso   1.000  C 
  C44      1.0000 0.72021  0.77942  0.08986  Biso   1.000  C 
  C45      1.0000 0.74969  0.78418  0.94295  Biso   1.000  C 
  C46      1.0000 0.23775  0.22478  0.25256  Biso   1.000  C 
  C47      1.0000 0.28348  0.17835  0.26223  Biso   1.000  C 
  C48      1.0000 0.10057  0.63727  0.72010  Biso   1.000  C 
  C49      1.0000 0.88121  0.57746  0.27303  Biso   1.000  C 
  C50      1.0000 0.79396  0.73801  0.95624  Biso   1.000  C 
  C51      1.0000 0.14637  0.32113  0.22646  Biso   1.000  C 
  C52      1.0000 0.56601  0.13737  0.84725  Biso   1.000  C 
  C53      1.0000 0.74039  0.28031  0.76082  Biso   1.000  C 
  C54      1.0000 0.78621  0.32657  0.77027  Biso   1.000  C 
  C55      1.0000 0.73775  0.72478  0.25257  Biso   1.000  C 
  C56      1.0000 0.28621  0.82657  0.77030  Biso   1.000  C 
  C57      1.0000 0.81447  0.32108  0.62462  Biso   1.000  C 
  C58      1.0000 0.75172  0.22063  0.44963  Biso   1.000  C 
  C59      1.0000 0.31447  0.82109  0.62464  Biso   1.000  C 
  C60      1.0000 0.29611  0.76664  0.46286  Biso   1.000  C 
  C61      1.0000 0.06600  0.63738  0.84726  Biso   1.000  C 
  C62      1.0000 0.24969  0.28417  0.94294  Biso   1.000  C 
  C63      1.0000 0.78348  0.67835  0.26225  Biso   1.000  C 
  C64      1.0000 0.24039  0.78031  0.76084  Biso   1.000  C 
  H1       1.0000 0.73655  0.82500  0.81726  Biso   1.000  H 
  H2       1.0000 0.14514  0.74496  0.01094  Biso   1.000  H 
  H3       1.0000 0.81544  0.74298  0.84010  Biso   1.000  H 
  H4       1.0000 0.09232  0.45053  0.94966  Biso   1.000  H 
  H5       1.0000 0.87017  0.44865  0.90777  Biso   1.000  H 
  H6       1.0000 0.89407  0.67194  0.87470  Biso   1.000  H 
  H7       1.0000 0.16351  0.63881  0.46072  Biso   1.000  H 
  H8       1.0000 0.79610  0.63745  0.38802  Biso   1.000  H 
  H9       1.0000 0.29903  0.86764  0.89633  Biso   1.000  H 
  H10      1.0000 0.31544  0.24298  0.84009  Biso   1.000  H 
  H11      1.0000 0.59145  0.05879  0.44705  Biso   1.000  H 
  H12      1.0000 0.66351  0.13880  0.46071  Biso   1.000  H 
  H13      1.0000 0.39475  0.83534  0.37457  Biso   1.000  H 
  H14      1.0000 0.56735  0.17224  0.98079  Biso   1.000  H 
  H15      1.0000 0.73832  0.17973  0.32346  Biso   1.000  H 
  H16      1.0000 0.81747  0.26141  0.34633  Biso   1.000  H 
  H17      1.0000 0.22449  0.82630  0.03453  Biso   1.000  H 
  H18      1.0000 0.29609  0.13744  0.38801  Biso   1.000  H 
  H19      1.0000 0.23655  0.32500  0.81725  Biso   1.000  H 
  H20      1.0000 0.39407  0.17194  0.87470  Biso   1.000  H 
  H21      1.0000 0.37017  0.94865  0.90780  Biso   1.000  H 
  H22      1.0000 0.59233  0.95053  0.94968  Biso   1.000  H 
  H23      1.0000 0.06734  0.67225  0.98080  Biso   1.000  H 
  H24      1.0000 0.22124  0.17891  0.52453  Biso   1.000  H 
  H25      1.0000 0.89476  0.33533  0.37457  Biso   1.000  H 
  H26      1.0000 0.64274  0.76156  0.50314  Biso   1.000  H 
  H27      1.0000 0.56543  0.83476  0.47369  Biso   1.000  H 
  H28      1.0000 0.79904  0.36764  0.89631  Biso   1.000  H 
  H29      1.0000 0.14274  0.26156  0.50313  Biso   1.000  H 
  H30      1.0000 0.86763  0.55630  0.39973  Biso   1.000  H 
  H31      1.0000 0.72124  0.67891  0.52453  Biso   1.000  H 
  H32      1.0000 0.06544  0.33476  0.47371  Biso   1.000  H 
  H33      1.0000 0.36763  0.05630  0.39971  Biso   1.000  H 
  H34      1.0000 0.31747  0.76141  0.34637  Biso   1.000  H 
  H35      1.0000 0.23832  0.67974  0.32348  Biso   1.000  H 
  H36      1.0000 0.16219  0.36732  0.95577  Biso   1.000  H 
  H37      1.0000 0.09145  0.55880  0.44706  Biso   1.000  H 
  H38      1.0000 0.72449  0.32630  0.03451  Biso   1.000  H 
  H39      1.0000 0.66220  0.86732  0.95578  Biso   1.000  H 
  H40      1.0000 0.64514  0.24495  0.01092  Biso   1.000  H 
  N1       1.0000 0.43429  0.08361  0.07171  Biso   1.000  N 
  N2       1.0000 0.92549  0.54675  0.23568  Biso   1.000  N 
  N3       1.0000 0.52657  0.08422  0.78186  Biso   1.000  N 
  N4       1.0000 0.93429  0.58361  0.07171  Biso   1.000  N 
  N5       1.0000 0.92662  0.46024  0.73848  Biso   1.000  N 
  N6       1.0000 0.02634  0.42464  0.28051  Biso   1.000  N 
  N7       1.0000 0.42662  0.96025  0.73849  Biso   1.000  N 
  N8       1.0000 0.53529  0.96152  0.11691  Biso   1.000  N 
  N9       1.0000 0.93485  0.42412  0.57199  Biso   1.000  N 
  N10      1.0000 0.52634  0.92464  0.28050  Biso   1.000  N 
  N11      1.0000 0.42550  0.04676  0.23568  Biso   1.000  N 
  N12      1.0000 0.03465  0.54807  0.61515  Biso   1.000  N 
  N13      1.0000 0.43484  0.92413  0.57198  Biso   1.000  N 
  N14      1.0000 0.03529  0.46152  0.11691  Biso   1.000  N 
  N15      1.0000 0.53465  0.04806  0.61514  Biso   1.000  N 
  N16      1.0000 0.02656  0.58423  0.78186  Biso   1.000  N 
  Zn1      1.0000 0.98078  0.53181  0.92740  Biso   1.000  Zn
  Zn2      1.0000 0.48033  0.97691  0.42614  Biso   1.000  Zn
  Zn3      1.0000 0.48078  0.03182  0.92741  Biso   1.000  Zn
  Zn4      1.0000 0.98034  0.47691  0.42615  Biso   1.000  Zn
