data_image0
_cell_length_a       26.819
_cell_length_b       23.1073
_cell_length_c       7.15879
_cell_angle_alpha    89.9785
_cell_angle_beta     90.9606
_cell_angle_gamma    89.9998

_symmetry_space_group_name_H-M    "P 1"
_symmetry_int_tables_number       1

loop_
  _symmetry_equiv_pos_as_xyz
  'x, y, z'

loop_
  _atom_site_label
  _atom_site_occupancy
  _atom_site_fract_x
  _atom_site_fract_y
  _atom_site_fract_z
  _atom_site_thermal_displace_type
  _atom_site_B_iso_or_equiv
  _atom_site_type_symbol
  C1       1.0000 0.85834  0.34875  0.00107  Biso   1.000  C 
  C2       1.0000 0.58682  0.91684  0.34503  Biso   1.000  C 
  C3       1.0000 0.58499  0.08757  0.15256  Biso   1.000  C 
  C4       1.0000 0.42414  0.91604  0.15397  Biso   1.000  C 
  C5       1.0000 0.23423  0.72924  0.00032  Biso   1.000  C 
  C6       1.0000 0.22177  0.69796  0.16162  Biso   1.000  C 
  C7       1.0000 0.35834  0.15125  0.50102  Biso   1.000  C 
  C8       1.0000 0.32903  0.15880  0.66043  Biso   1.000  C 
  C9       1.0000 0.84593  0.68428  0.34172  Biso   1.000  C 
  C10      1.0000 0.80594  0.72257  0.34142  Biso   1.000  C 
  C11      1.0000 0.92412  0.41605  0.15403  Biso   1.000  C 
  C12      1.0000 0.08682  0.41684  0.34513  Biso   1.000  C 
  C13      1.0000 0.77662  0.26987  0.00076  Biso   1.000  C 
  C14      1.0000 0.84594  0.31574  0.84180  Biso   1.000  C 
  C15      1.0000 0.61064  0.89010  0.49879  Biso   1.000  C 
  C16      1.0000 0.15237  0.65058  0.99929  Biso   1.000  C 
  C17      1.0000 0.28928  0.19744  0.66046  Biso   1.000  C 
  C18      1.0000 0.18196  0.65942  0.16098  Biso   1.000  C 
  C19      1.0000 0.08685  0.58315  0.84509  Biso   1.000  C 
  C20      1.0000 0.61064  0.10990  0.99876  Biso   1.000  C 
  C21      1.0000 0.42491  0.91266  0.84618  Biso   1.000  C 
  C22      1.0000 0.58686  0.08314  0.84502  Biso   1.000  C 
  C23      1.0000 0.66464  0.18209  0.83816  Biso   1.000  C 
  C24      1.0000 0.11063  0.39010  0.49890  Biso   1.000  C 
  C25      1.0000 0.92487  0.58730  0.34618  Biso   1.000  C 
  C26      1.0000 0.20470  0.72030  0.83858  Biso   1.000  C 
  C27      1.0000 0.73423  0.22923  0.00031  Biso   1.000  C 
  C28      1.0000 0.65238  0.15056  0.99921  Biso   1.000  C 
  C29      1.0000 0.68197  0.15940  0.16092  Biso   1.000  C 
  C30      1.0000 0.72178  0.19794  0.16159  Biso   1.000  C 
  C31      1.0000 0.70472  0.22029  0.83856  Biso   1.000  C 
  C32      1.0000 0.08502  0.41244  0.65270  Biso   1.000  C 
  C33      1.0000 0.89990  0.38965  0.00058  Biso   1.000  C 
  C34      1.0000 0.27663  0.23014  0.50075  Biso   1.000  C 
  C35      1.0000 0.39990  0.11034  0.50050  Biso   1.000  C 
  C36      1.0000 0.65239  0.84943  0.49925  Biso   1.000  C 
  C37      1.0000 0.16462  0.68210  0.83823  Biso   1.000  C 
  C38      1.0000 0.42419  0.08399  0.65396  Biso   1.000  C 
  C39      1.0000 0.30595  0.77744  0.84145  Biso   1.000  C 
  C40      1.0000 0.30593  0.22258  0.34142  Biso   1.000  C 
  C41      1.0000 0.34593  0.18428  0.34173  Biso   1.000  C 
  C42      1.0000 0.85835  0.65125  0.50102  Biso   1.000  C 
  C43      1.0000 0.82903  0.65880  0.66043  Biso   1.000  C 
  C44      1.0000 0.78929  0.69744  0.66046  Biso   1.000  C 
  C45      1.0000 0.34595  0.81572  0.84177  Biso   1.000  C 
  C46      1.0000 0.77663  0.73014  0.50075  Biso   1.000  C 
  C47      1.0000 0.92491  0.41267  0.84625  Biso   1.000  C 
  C48      1.0000 0.08500  0.58756  0.15265  Biso   1.000  C 
  C49      1.0000 0.27662  0.76987  0.00075  Biso   1.000  C 
  C50      1.0000 0.28926  0.80256  0.16042  Biso   1.000  C 
  C51      1.0000 0.20468  0.27972  0.33865  Biso   1.000  C 
  C52      1.0000 0.39991  0.88965  0.00052  Biso   1.000  C 
  C53      1.0000 0.11063  0.60990  0.99885  Biso   1.000  C 
  C54      1.0000 0.89990  0.61034  0.50052  Biso   1.000  C 
  C55      1.0000 0.42484  0.08729  0.34615  Biso   1.000  C 
  C56      1.0000 0.32901  0.84120  0.16040  Biso   1.000  C 
  C57      1.0000 0.23424  0.27078  0.50033  Biso   1.000  C 
  C58      1.0000 0.58505  0.91246  0.65261  Biso   1.000  C 
  C59      1.0000 0.82900  0.34120  0.16043  Biso   1.000  C 
  C60      1.0000 0.22181  0.30205  0.66160  Biso   1.000  C 
  C61      1.0000 0.66462  0.81790  0.33824  Biso   1.000  C 
  C62      1.0000 0.70469  0.77971  0.33861  Biso   1.000  C 
  C63      1.0000 0.16461  0.31791  0.33830  Biso   1.000  C 
  C64      1.0000 0.18199  0.34058  0.66098  Biso   1.000  C 
  C65      1.0000 0.68200  0.84059  0.66091  Biso   1.000  C 
  C66      1.0000 0.72182  0.80206  0.66155  Biso   1.000  C 
  C67      1.0000 0.73424  0.77077  0.50031  Biso   1.000  C 
  C68      1.0000 0.92418  0.58397  0.65399  Biso   1.000  C 
  C69      1.0000 0.80595  0.27745  0.84147  Biso   1.000  C 
  C70      1.0000 0.15237  0.34942  0.49933  Biso   1.000  C 
  C71      1.0000 0.35835  0.84874  0.00104  Biso   1.000  C 
  C72      1.0000 0.78926  0.30255  0.16045  Biso   1.000  C 
  H1       1.0000 0.36859  0.81928  0.71706  Biso   1.000  H 
  H2       1.0000 0.64174  0.17754  0.71158  Biso   1.000  H 
  H3       1.0000 0.29806  0.75165  0.71680  Biso   1.000  H 
  H4       1.0000 0.24466  0.70266  0.28814  Biso   1.000  H 
  H5       1.0000 0.76660  0.29885  0.28503  Biso   1.000  H 
  H6       1.0000 0.71246  0.24502  0.71245  Biso   1.000  H 
  H7       1.0000 0.91848  0.40531  0.69801  Biso   1.000  H 
  H8       1.0000 0.09465  0.58664  0.69717  Biso   1.000  H 
  H9       1.0000 0.09017  0.59650  0.30059  Biso   1.000  H 
  H10      1.0000 0.33672  0.86700  0.28520  Biso   1.000  H 
  H11      1.0000 0.17438  0.63463  0.28713  Biso   1.000  H 
  H12      1.0000 0.91782  0.58910  0.80244  Biso   1.000  H 
  H13      1.0000 0.41785  0.08913  0.80243  Biso   1.000  H 
  H14      1.0000 0.59467  0.08661  0.69711  Biso   1.000  H 
  H15      1.0000 0.86859  0.31930  0.71709  Biso   1.000  H 
  H16      1.0000 0.79806  0.25166  0.71682  Biso   1.000  H 
  H17      1.0000 0.91772  0.41096  0.30247  Biso   1.000  H 
  H18      1.0000 0.64169  0.82246  0.21170  Biso   1.000  H 
  H19      1.0000 0.71242  0.75499  0.21255  Biso   1.000  H 
  H20      1.0000 0.24472  0.29735  0.78809  Biso   1.000  H 
  H21      1.0000 0.26660  0.79886  0.28501  Biso   1.000  H 
  H22      1.0000 0.09459  0.41333  0.19720  Biso   1.000  H 
  H23      1.0000 0.67439  0.13460  0.28705  Biso   1.000  H 
  H24      1.0000 0.17443  0.36537  0.78710  Biso   1.000  H 
  H25      1.0000 0.74467  0.20264  0.28812  Biso   1.000  H 
  H26      1.0000 0.26664  0.20113  0.78508  Biso   1.000  H 
  H27      1.0000 0.41774  0.91095  0.30243  Biso   1.000  H 
  H28      1.0000 0.14167  0.32247  0.21178  Biso   1.000  H 
  H29      1.0000 0.67444  0.86539  0.78699  Biso   1.000  H 
  H30      1.0000 0.79804  0.74837  0.21673  Biso   1.000  H 
  H31      1.0000 0.83676  0.63297  0.78525  Biso   1.000  H 
  H32      1.0000 0.86856  0.68073  0.21698  Biso   1.000  H 
  H33      1.0000 0.74472  0.79736  0.78805  Biso   1.000  H 
  H34      1.0000 0.41848  0.90531  0.69795  Biso   1.000  H 
  H35      1.0000 0.41835  0.09460  0.19790  Biso   1.000  H 
  H36      1.0000 0.59025  0.90353  0.80055  Biso   1.000  H 
  H37      1.0000 0.21241  0.25501  0.21255  Biso   1.000  H 
  H38      1.0000 0.09022  0.40351  0.80066  Biso   1.000  H 
  H39      1.0000 0.33675  0.13298  0.78526  Biso   1.000  H 
  H40      1.0000 0.59458  0.91333  0.19710  Biso   1.000  H 
  H41      1.0000 0.76665  0.70113  0.78508  Biso   1.000  H 
  H42      1.0000 0.29803  0.24838  0.21675  Biso   1.000  H 
  H43      1.0000 0.59016  0.09653  0.30049  Biso   1.000  H 
  H44      1.0000 0.83671  0.36700  0.28524  Biso   1.000  H 
  H45      1.0000 0.14171  0.67755  0.71166  Biso   1.000  H 
  H46      1.0000 0.21244  0.74502  0.71248  Biso   1.000  H 
  H47      1.0000 0.91839  0.59462  0.19794  Biso   1.000  H 
  H48      1.0000 0.36855  0.18073  0.21698  Biso   1.000  H 
  N1       1.0000 0.46041  0.04843  0.59453  Biso   1.000  N 
  N2       1.0000 0.96080  0.55042  0.40437  Biso   1.000  N 
  N3       1.0000 0.05031  0.54789  0.90396  Biso   1.000  N 
  N4       1.0000 0.96041  0.54842  0.59458  Biso   1.000  N 
  N5       1.0000 0.54908  0.94923  0.59391  Biso   1.000  N 
  N6       1.0000 0.46079  0.05041  0.40431  Biso   1.000  N 
  N7       1.0000 0.55029  0.95210  0.40390  Biso   1.000  N 
  N8       1.0000 0.96037  0.45159  0.09462  Biso   1.000  N 
  N9       1.0000 0.54905  0.05079  0.09388  Biso   1.000  N 
  N10      1.0000 0.05028  0.45209  0.40399  Biso   1.000  N 
  N11      1.0000 0.04905  0.55078  0.09395  Biso   1.000  N 
  N12      1.0000 0.96083  0.44955  0.90443  Biso   1.000  N 
  N13      1.0000 0.46083  0.94956  0.90435  Biso   1.000  N 
  N14      1.0000 0.46038  0.95159  0.09455  Biso   1.000  N 
  N15      1.0000 0.55032  0.04789  0.90389  Biso   1.000  N 
  N16      1.0000 0.04906  0.44922  0.59400  Biso   1.000  N 
  Zn1      1.0000 0.50513  0.99824  0.74918  Biso   1.000  Zn
  Zn2      1.0000 0.50508  0.00175  0.24918  Biso   1.000  Zn
  Zn3      1.0000 0.00508  0.50175  0.24927  Biso   1.000  Zn
  Zn4      1.0000 0.00513  0.49824  0.74926  Biso   1.000  Zn
