data_image0
_cell_length_a       23.7959
_cell_length_b       28.3568
_cell_length_c       6.50905
_cell_angle_alpha    103.511
_cell_angle_beta     90.0225
_cell_angle_gamma    90.0013

_symmetry_space_group_name_H-M    "P 1"
_symmetry_int_tables_number       1

loop_
  _symmetry_equiv_pos_as_xyz
  'x, y, z'

loop_
  _atom_site_label
  _atom_site_occupancy
  _atom_site_fract_x
  _atom_site_fract_y
  _atom_site_fract_z
  _atom_site_thermal_displace_type
  _atom_site_B_iso_or_equiv
  _atom_site_type_symbol
  C1       1.0000 0.39763  0.12277  0.93911  Biso   1.000  C 
  C2       1.0000 0.71581  0.23271  0.43192  Biso   1.000  C 
  C3       1.0000 0.21616  0.73256  0.43313  Biso   1.000  C 
  C4       1.0000 0.44229  0.93587  0.55739  Biso   1.000  C 
  C5       1.0000 0.86004  0.66097  0.93999  Biso   1.000  C 
  C6       1.0000 0.32711  0.19390  0.93752  Biso   1.000  C 
  C7       1.0000 0.10578  0.59158  0.57990  Biso   1.000  C 
  C8       1.0000 0.71521  0.78735  0.09421  Biso   1.000  C 
  C9       1.0000 0.25088  0.24891  0.09820  Biso   1.000  C 
  C10      1.0000 0.10859  0.62273  0.43944  Biso   1.000  C 
  C11      1.0000 0.60841  0.12283  0.43924  Biso   1.000  C 
  C12      1.0000 0.06416  0.60688  0.29613  Biso   1.000  C 
  C13      1.0000 0.56396  0.10690  0.29609  Biso   1.000  C 
  C14      1.0000 0.75156  0.74943  0.09923  Biso   1.000  C 
  C15      1.0000 0.28979  0.23240  0.93285  Biso   1.000  C 
  C16      1.0000 0.60571  0.09172  0.57984  Biso   1.000  C 
  C17      1.0000 0.29066  0.25544  0.76216  Biso   1.000  C 
  C18      1.0000 0.79116  0.75582  0.76269  Biso   1.000  C 
  C19      1.0000 0.25431  0.29336  0.75709  Biso   1.000  C 
  C20      1.0000 0.75481  0.79374  0.75767  Biso   1.000  C 
  C21      1.0000 0.21544  0.30991  0.92254  Biso   1.000  C 
  C22      1.0000 0.71601  0.81034  0.92331  Biso   1.000  C 
  C23      1.0000 0.17832  0.34854  0.91780  Biso   1.000  C 
  C24      1.0000 0.67882  0.84891  0.91847  Biso   1.000  C 
  C25      1.0000 0.40056  0.95095  0.27342  Biso   1.000  C 
  C26      1.0000 0.90047  0.45107  0.27298  Biso   1.000  C 
  C27      1.0000 0.39789  0.91986  0.41414  Biso   1.000  C 
  C28      1.0000 0.89772  0.41993  0.41351  Biso   1.000  C 
  C29      1.0000 0.32772  0.84857  0.41707  Biso   1.000  C 
  C30      1.0000 0.82758  0.69426  0.93800  Biso   1.000  C 
  C31      1.0000 0.35971  0.16072  0.93978  Biso   1.000  C 
  C32      1.0000 0.10833  0.41998  0.91488  Biso   1.000  C 
  C33      1.0000 0.21453  0.28684  0.09318  Biso   1.000  C 
  C34      1.0000 0.56414  0.93610  0.05821  Biso   1.000  C 
  C35      1.0000 0.79035  0.73284  0.93357  Biso   1.000  C 
  C36      1.0000 0.82744  0.34865  0.41545  Biso   1.000  C 
  C37      1.0000 0.14604  0.38190  0.91473  Biso   1.000  C 
  C38      1.0000 0.94209  0.43589  0.55696  Biso   1.000  C 
  C39      1.0000 0.64643  0.88218  0.91527  Biso   1.000  C 
  C40      1.0000 0.64621  0.16087  0.43973  Biso   1.000  C 
  C41      1.0000 0.60585  0.95121  0.77437  Biso   1.000  C 
  C42      1.0000 0.10562  0.45100  0.77386  Biso   1.000  C 
  C43      1.0000 0.17894  0.69398  0.43787  Biso   1.000  C 
  C44      1.0000 0.75128  0.29350  0.25521  Biso   1.000  C 
  C45      1.0000 0.25165  0.79337  0.25665  Biso   1.000  C 
  C46      1.0000 0.71490  0.25562  0.26080  Biso   1.000  C 
  C47      1.0000 0.21529  0.75547  0.26203  Biso   1.000  C 
  C48      1.0000 0.06396  0.43603  0.05804  Biso   1.000  C 
  C49      1.0000 0.14648  0.66072  0.44023  Biso   1.000  C 
  C50      1.0000 0.75471  0.24935  0.59729  Biso   1.000  C 
  C51      1.0000 0.25500  0.74922  0.59868  Biso   1.000  C 
  C52      1.0000 0.79108  0.28723  0.59171  Biso   1.000  C 
  C53      1.0000 0.29135  0.78712  0.59332  Biso   1.000  C 
  C54      1.0000 0.79019  0.31012  0.42052  Biso   1.000  C 
  C55      1.0000 0.94219  0.60694  0.79577  Biso   1.000  C 
  C56      1.0000 0.44203  0.10686  0.79583  Biso   1.000  C 
  C57      1.0000 0.89783  0.62292  0.93910  Biso   1.000  C 
  C58      1.0000 0.60861  0.92018  0.91531  Biso   1.000  C 
  C59      1.0000 0.29051  0.81002  0.42215  Biso   1.000  C 
  C60      1.0000 0.90051  0.59177  0.07961  Biso   1.000  C 
  C61      1.0000 0.40042  0.09164  0.07964  Biso   1.000  C 
  C62      1.0000 0.36012  0.88182  0.41387  Biso   1.000  C 
  C63      1.0000 0.85991  0.38190  0.41280  Biso   1.000  C 
  C64      1.0000 0.67862  0.19415  0.43698  Biso   1.000  C 
  Co1      1.0000 0.98702  0.52145  0.17658  Biso   1.000  Co
  Co2      1.0000 0.48701  0.02140  0.17665  Biso   1.000  Co
  Co3      1.0000 0.51914  0.02144  0.67672  Biso   1.000  Co
  Co4      1.0000 0.01910  0.52139  0.67650  Biso   1.000  Co
  H1       1.0000 0.45520  0.12029  0.66028  Biso   1.000  H 
  H2       1.0000 0.68504  0.24313  0.13254  Biso   1.000  H 
  H3       1.0000 0.63166  0.09136  0.71667  Biso   1.000  H 
  H4       1.0000 0.45552  0.92251  0.69303  Biso   1.000  H 
  H5       1.0000 0.95539  0.62035  0.66023  Biso   1.000  H 
  H6       1.0000 0.13153  0.45125  0.63687  Biso   1.000  H 
  H7       1.0000 0.18548  0.74298  0.13362  Biso   1.000  H 
  H8       1.0000 0.32115  0.79962  0.72177  Biso   1.000  H 
  H9       1.0000 0.82093  0.29972  0.71999  Biso   1.000  H 
  H10      1.0000 0.05074  0.42269  0.19379  Biso   1.000  H 
  H11      1.0000 0.25048  0.81077  0.12401  Biso   1.000  H 
  H12      1.0000 0.63181  0.95154  0.63761  Biso   1.000  H 
  H13      1.0000 0.18473  0.29926  0.22158  Biso   1.000  H 
  H14      1.0000 0.75592  0.23196  0.72995  Biso   1.000  H 
  H15      1.0000 0.25617  0.73182  0.73133  Biso   1.000  H 
  H16      1.0000 0.87460  0.59144  0.21649  Biso   1.000  H 
  H17      1.0000 0.55094  0.92273  0.19385  Biso   1.000  H 
  H18      1.0000 0.75593  0.81119  0.62519  Biso   1.000  H 
  H19      1.0000 0.95528  0.42248  0.69254  Biso   1.000  H 
  H20      1.0000 0.68543  0.79979  0.22269  Biso   1.000  H 
  H21      1.0000 0.55072  0.12033  0.16058  Biso   1.000  H 
  H22      1.0000 0.24969  0.23140  0.23049  Biso   1.000  H 
  H23      1.0000 0.87456  0.45141  0.13602  Biso   1.000  H 
  H24      1.0000 0.37462  0.95125  0.13646  Biso   1.000  H 
  H25      1.0000 0.37451  0.09126  0.21649  Biso   1.000  H 
  H26      1.0000 0.25551  0.31086  0.62478  Biso   1.000  H 
  H27      1.0000 0.82091  0.74335  0.63417  Biso   1.000  H 
  H28      1.0000 0.32049  0.24304  0.63381  Biso   1.000  H 
  H29      1.0000 0.75042  0.73195  0.23165  Biso   1.000  H 
  H30      1.0000 0.13170  0.59116  0.71676  Biso   1.000  H 
  H31      1.0000 0.75006  0.31088  0.12251  Biso   1.000  H 
  H32      1.0000 0.05100  0.62035  0.16066  Biso   1.000  H 
  N1       1.0000 0.53744  0.06945  0.34861  Biso   1.000  N 
  N2       1.0000 0.46874  0.97336  0.50483  Biso   1.000  N 
  N3       1.0000 0.44284  0.05989  0.02249  Biso   1.000  N 
  N4       1.0000 0.96861  0.47338  0.50466  Biso   1.000  N 
  N5       1.0000 0.94284  0.48287  0.33034  Biso   1.000  N 
  N6       1.0000 0.44291  0.98279  0.33051  Biso   1.000  N 
  N7       1.0000 0.03754  0.56944  0.34846  Biso   1.000  N 
  N8       1.0000 0.96866  0.56943  0.84815  Biso   1.000  N 
  N9       1.0000 0.46860  0.06941  0.84827  Biso   1.000  N 
  N10      1.0000 0.94287  0.55996  0.02238  Biso   1.000  N 
  N11      1.0000 0.56337  0.98294  0.83101  Biso   1.000  N 
  N12      1.0000 0.53757  0.97348  0.00525  Biso   1.000  N 
  N13      1.0000 0.06331  0.55987  0.52263  Biso   1.000  N 
  N14      1.0000 0.56328  0.05995  0.52278  Biso   1.000  N 
  N15      1.0000 0.06325  0.48283  0.83068  Biso   1.000  N 
  N16      1.0000 0.03747  0.47345  0.00512  Biso   1.000  N 
