data_image0
_cell_length_a       6.83905
_cell_length_b       18.4009
_cell_length_c       21.6438
_cell_angle_alpha    90.0245
_cell_angle_beta     100.183
_cell_angle_gamma    89.9269

_symmetry_space_group_name_H-M    "P 1"
_symmetry_int_tables_number       1

loop_
  _symmetry_equiv_pos_as_xyz
  'x, y, z'

loop_
  _atom_site_label
  _atom_site_occupancy
  _atom_site_fract_x
  _atom_site_fract_y
  _atom_site_fract_z
  _atom_site_thermal_displace_type
  _atom_site_B_iso_or_equiv
  _atom_site_type_symbol
  C1       1.0000 0.83551  0.12538  0.59975  Biso   1.000  C 
  C2       1.0000 0.02157  0.13454  0.63943  Biso   1.000  C 
  C3       1.0000 0.14485  0.08275  0.61708  Biso   1.000  C 
  C4       1.0000 0.16352  0.22529  0.28145  Biso   1.000  C 
  C5       1.0000 0.20754  0.18281  0.32548  Biso   1.000  C 
  C6       1.0000 0.20795  0.31476  0.82584  Biso   1.000  C 
  C7       1.0000 0.16394  0.27226  0.78181  Biso   1.000  C 
  C8       1.0000 0.63485  0.91532  0.39807  Biso   1.000  C 
  C9       1.0000 0.14529  0.41506  0.11700  Biso   1.000  C 
  C10      1.0000 0.33550  0.62538  0.09976  Biso   1.000  C 
  C11      1.0000 0.52156  0.63454  0.13944  Biso   1.000  C 
  C12      1.0000 0.64484  0.58274  0.11709  Biso   1.000  C 
  C13      1.0000 0.83603  0.37266  0.09959  Biso   1.000  C 
  C14      1.0000 0.66353  0.72528  0.78144  Biso   1.000  C 
  C15      1.0000 0.70797  0.81476  0.32584  Biso   1.000  C 
  C16      1.0000 0.66395  0.77226  0.28181  Biso   1.000  C 
  C17      1.0000 0.02211  0.36326  0.13922  Biso   1.000  C 
  C18      1.0000 0.57173  0.68318  0.18945  Biso   1.000  C 
  C19      1.0000 0.70754  0.68279  0.82547  Biso   1.000  C 
  C20      1.0000 0.64531  0.91505  0.61699  Biso   1.000  C 
  C21      1.0000 0.44371  0.12512  0.41532  Biso   1.000  C 
  C22      1.0000 0.13483  0.08235  0.39771  Biso   1.000  C 
  C23      1.0000 0.25783  0.13418  0.37548  Biso   1.000  C 
  C24      1.0000 0.52214  0.86326  0.63922  Biso   1.000  C 
  C25      1.0000 0.33605  0.87265  0.59959  Biso   1.000  C 
  C26      1.0000 0.11561  0.27192  0.23315  Biso   1.000  C 
  C27      1.0000 0.94370  0.62512  0.91532  Biso   1.000  C 
  C28      1.0000 0.11574  0.22566  0.73349  Biso   1.000  C 
  C29      1.0000 0.07172  0.18318  0.68945  Biso   1.000  C 
  C30      1.0000 0.75783  0.63417  0.87548  Biso   1.000  C 
  C31      1.0000 0.07209  0.31447  0.18914  Biso   1.000  C 
  C32      1.0000 0.13484  0.41532  0.89808  Biso   1.000  C 
  C33      1.0000 0.25812  0.36347  0.87579  Biso   1.000  C 
  C34      1.0000 0.57211  0.81446  0.68913  Biso   1.000  C 
  C35      1.0000 0.61563  0.77191  0.73314  Biso   1.000  C 
  C36      1.0000 0.94418  0.87269  0.41545  Biso   1.000  C 
  C37      1.0000 0.75813  0.86347  0.37579  Biso   1.000  C 
  C38      1.0000 0.44416  0.37268  0.91545  Biso   1.000  C 
  C39      1.0000 0.61574  0.72566  0.23349  Biso   1.000  C 
  C40      1.0000 0.63482  0.58234  0.89771  Biso   1.000  C 
  Co1      1.0000 0.13987  0.98412  0.50749  Biso   1.000  Co
  Co2      1.0000 0.63984  0.48412  0.00750  Biso   1.000  Co
  Co3      1.0000 0.13981  0.51393  0.00763  Biso   1.000  Co
  Co4      1.0000 0.63982  0.01393  0.50763  Biso   1.000  Co
  H1       1.0000 0.69715  0.34444  0.10029  Biso   1.000  H 
  H2       1.0000 0.47899  0.57044  0.88098  Biso   1.000  H 
  H3       1.0000 0.47879  0.92708  0.38150  Biso   1.000  H 
  H4       1.0000 0.58316  0.34441  0.91473  Biso   1.000  H 
  H5       1.0000 0.97877  0.42708  0.88151  Biso   1.000  H 
  H6       1.0000 0.30089  0.07098  0.63366  Biso   1.000  H 
  H7       1.0000 0.69653  0.15367  0.60050  Biso   1.000  H 
  H8       1.0000 0.08249  0.65341  0.91466  Biso   1.000  H 
  H9       1.0000 0.97900  0.07045  0.38098  Biso   1.000  H 
  H10      1.0000 0.19717  0.84443  0.60029  Biso   1.000  H 
  H11      1.0000 0.80138  0.92669  0.63355  Biso   1.000  H 
  H12      1.0000 0.19653  0.65367  0.10052  Biso   1.000  H 
  H13      1.0000 0.80088  0.57097  0.13367  Biso   1.000  H 
  H14      1.0000 0.58250  0.15342  0.41466  Biso   1.000  H 
  H15      1.0000 0.08318  0.84441  0.41473  Biso   1.000  H 
  H16      1.0000 0.30137  0.42669  0.13356  Biso   1.000  H 
  N1       1.0000 0.74007  0.54598  0.94656  Biso   1.000  N 
  N2       1.0000 0.93053  0.57243  0.95747  Biso   1.000  N 
  N3       1.0000 0.43086  0.42549  0.95754  Biso   1.000  N 
  N4       1.0000 0.24015  0.45185  0.94676  Biso   1.000  N 
  N5       1.0000 0.24008  0.04598  0.44655  Biso   1.000  N 
  N6       1.0000 0.43055  0.07243  0.45747  Biso   1.000  N 
  N7       1.0000 0.74017  0.95185  0.44676  Biso   1.000  N 
  N8       1.0000 0.93087  0.92550  0.45754  Biso   1.000  N 
  N9       1.0000 0.53953  0.54629  0.06835  Biso   1.000  N 
  N10      1.0000 0.84915  0.42554  0.05759  Biso   1.000  N 
  N11      1.0000 0.84881  0.07264  0.55760  Biso   1.000  N 
  N12      1.0000 0.03985  0.45175  0.06840  Biso   1.000  N 
  N13      1.0000 0.03956  0.04629  0.56835  Biso   1.000  N 
  N14      1.0000 0.34879  0.57264  0.05761  Biso   1.000  N 
  N15      1.0000 0.53986  0.95175  0.56840  Biso   1.000  N 
  N16      1.0000 0.34917  0.92553  0.55759  Biso   1.000  N 
