data_image0
_cell_length_a       24.2893
_cell_length_b       5.80555
_cell_length_c       6.90864
_cell_angle_alpha    89.9203
_cell_angle_beta     92.5715
_cell_angle_gamma    89.9927

_symmetry_space_group_name_H-M    "P 1"
_symmetry_int_tables_number       1

loop_
  _symmetry_equiv_pos_as_xyz
  'x, y, z'

loop_
  _atom_site_label
  _atom_site_occupancy
  _atom_site_fract_x
  _atom_site_fract_y
  _atom_site_fract_z
  _atom_site_thermal_displace_type
  _atom_site_B_iso_or_equiv
  _atom_site_type_symbol
  C1       1.0000 0.37459  0.70461  0.76986  Biso   1.000  C 
  C2       1.0000 0.87483  0.79738  0.26904  Biso   1.000  C 
  C3       1.0000 0.83481  0.76358  0.11839  Biso   1.000  C 
  C4       1.0000 0.77544  0.76782  0.12913  Biso   1.000  C 
  C5       1.0000 0.36415  0.83396  0.46790  Biso   1.000  C 
  C6       1.0000 0.37491  0.29744  0.26939  Biso   1.000  C 
  C7       1.0000 0.17037  0.76830  0.66040  Biso   1.000  C 
  C8       1.0000 0.08174  0.33458  0.32171  Biso   1.000  C 
  C9       1.0000 0.33465  0.73871  0.61890  Biso   1.000  C 
  C10      1.0000 0.17061  0.23598  0.16016  Biso   1.000  C 
  C11      1.0000 0.36423  0.16744  0.96798  Biso   1.000  C 
  C12      1.0000 0.27528  0.73583  0.62982  Biso   1.000  C 
  C13      1.0000 0.11099  0.76380  0.67075  Biso   1.000  C 
  C14      1.0000 0.87466  0.20439  0.76970  Biso   1.000  C 
  C15      1.0000 0.33490  0.26388  0.11869  Biso   1.000  C 
  C16      1.0000 0.07130  0.20466  0.02023  Biso   1.000  C 
  C17      1.0000 0.86413  0.33405  0.46784  Biso   1.000  C 
  C18      1.0000 0.67041  0.26765  0.66065  Biso   1.000  C 
  C19      1.0000 0.57110  0.29675  0.52004  Biso   1.000  C 
  C20      1.0000 0.67056  0.73518  0.16029  Biso   1.000  C 
  C21      1.0000 0.86416  0.66723  0.96768  Biso   1.000  C 
  C22      1.0000 0.57123  0.70397  0.02048  Biso   1.000  C 
  C23      1.0000 0.07106  0.79720  0.51961  Biso   1.000  C 
  C24      1.0000 0.61119  0.73825  0.17127  Biso   1.000  C 
  C25      1.0000 0.27552  0.26841  0.12928  Biso   1.000  C 
  C26      1.0000 0.58173  0.83405  0.32192  Biso   1.000  C 
  C27      1.0000 0.58160  0.16698  0.82190  Biso   1.000  C 
  C28      1.0000 0.61103  0.26319  0.67113  Biso   1.000  C 
  C29      1.0000 0.11124  0.23893  0.17108  Biso   1.000  C 
  C30      1.0000 0.83469  0.23850  0.61887  Biso   1.000  C 
  C31      1.0000 0.77531  0.23539  0.62988  Biso   1.000  C 
  C32      1.0000 0.08155  0.66764  0.82153  Biso   1.000  C 
  Co1      1.0000 0.97290  0.46061  0.89454  Biso   1.000  Co
  Co2      1.0000 0.97291  0.53984  0.39440  Biso   1.000  Co
  Co3      1.0000 0.47290  0.96034  0.89486  Biso   1.000  Co
  Co4      1.0000 0.47295  0.03951  0.39479  Biso   1.000  Co
  H1       1.0000 0.36929  0.64096  0.91552  Biso   1.000  H 
  H2       1.0000 0.34885  0.11907  0.82420  Biso   1.000  H 
  H3       1.0000 0.34890  0.88230  0.32384  Biso   1.000  H 
  H4       1.0000 0.84877  0.61869  0.82393  Biso   1.000  H 
  H5       1.0000 0.84883  0.38258  0.32387  Biso   1.000  H 
  H6       1.0000 0.59686  0.11856  0.96592  Biso   1.000  H 
  H7       1.0000 0.09700  0.38326  0.46556  Biso   1.000  H 
  H8       1.0000 0.07660  0.14072  0.87479  Biso   1.000  H 
  H9       1.0000 0.86943  0.14050  0.91532  Biso   1.000  H 
  H10      1.0000 0.57650  0.63991  0.87508  Biso   1.000  H 
  H11      1.0000 0.86970  0.86176  0.41443  Biso   1.000  H 
  H12      1.0000 0.36978  0.36179  0.41480  Biso   1.000  H 
  H13      1.0000 0.57637  0.36088  0.37450  Biso   1.000  H 
  H14      1.0000 0.07634  0.86127  0.37407  Biso   1.000  H 
  H15      1.0000 0.59702  0.88282  0.46570  Biso   1.000  H 
  H16      1.0000 0.09683  0.61931  0.96554  Biso   1.000  H 
  N1       1.0000 0.69190  0.34870  0.49641  Biso   1.000  N 
  N2       1.0000 0.25379  0.65622  0.79455  Biso   1.000  N 
  N3       1.0000 0.02857  0.63697  0.76159  Biso   1.000  N 
  N4       1.0000 0.75386  0.15547  0.79455  Biso   1.000  N 
  N5       1.0000 0.20024  0.67204  0.80989  Biso   1.000  N 
  N6       1.0000 0.24563  0.17181  0.98021  Biso   1.000  N 
  N7       1.0000 0.24545  0.83348  0.48086  Biso   1.000  N 
  N8       1.0000 0.92386  0.28375  0.71505  Biso   1.000  N 
  N9       1.0000 0.02191  0.71696  0.57391  Biso   1.000  N 
  N10      1.0000 0.52195  0.21654  0.57432  Biso   1.000  N 
  N11      1.0000 0.52870  0.86376  0.26218  Biso   1.000  N 
  N12      1.0000 0.75397  0.84894  0.29320  Biso   1.000  N 
  N13      1.0000 0.52202  0.78346  0.07478  Biso   1.000  N 
  N14      1.0000 0.52862  0.13643  0.76196  Biso   1.000  N 
  N15      1.0000 0.02870  0.36418  0.26190  Biso   1.000  N 
  N16      1.0000 0.02207  0.28397  0.07448  Biso   1.000  N 
  N17      1.0000 0.70031  0.17122  0.81002  Biso   1.000  N 
  N18      1.0000 0.20046  0.33378  0.30874  Biso   1.000  N 
  N19      1.0000 0.69201  0.65501  0.99586  Biso   1.000  N 
  N20      1.0000 0.91718  0.63676  0.02724  Biso   1.000  N 
  N21      1.0000 0.19209  0.15600  0.99569  Biso   1.000  N 
  N22      1.0000 0.70043  0.83296  0.30886  Biso   1.000  N 
  N23      1.0000 0.91717  0.36379  0.52738  Biso   1.000  N 
  N24      1.0000 0.42402  0.21702  0.21495  Biso   1.000  N 
  N25      1.0000 0.41724  0.13673  0.02760  Biso   1.000  N 
  N26      1.0000 0.19189  0.84937  0.49622  Biso   1.000  N 
  N27      1.0000 0.41719  0.86357  0.52758  Biso   1.000  N 
  N28      1.0000 0.42382  0.78369  0.71532  Biso   1.000  N 
  N29      1.0000 0.92396  0.71714  0.21457  Biso   1.000  N 
  N30      1.0000 0.25401  0.34966  0.29324  Biso   1.000  N 
  N31      1.0000 0.74555  0.67093  0.98024  Biso   1.000  N 
  N32      1.0000 0.74545  0.33297  0.48097  Biso   1.000  N 
