data_image0
_cell_length_a       23.5024
_cell_length_b       10.3895
_cell_length_c       6.76228
_cell_angle_alpha    90.1428
_cell_angle_beta     86.8611
_cell_angle_gamma    90.0094

_symmetry_space_group_name_H-M    "P 1"
_symmetry_int_tables_number       1

loop_
  _symmetry_equiv_pos_as_xyz
  'x, y, z'

loop_
  _atom_site_label
  _atom_site_occupancy
  _atom_site_fract_x
  _atom_site_fract_y
  _atom_site_fract_z
  _atom_site_thermal_displace_type
  _atom_site_B_iso_or_equiv
  _atom_site_type_symbol
  C1       1.0000 0.37471  0.80972  0.77624  Biso   1.000  C 
  C2       1.0000 0.83469  0.67573  0.13148  Biso   1.000  C 
  C3       1.0000 0.33437  0.82628  0.63232  Biso   1.000  C 
  C4       1.0000 0.36218  0.90320  0.48626  Biso   1.000  C 
  C5       1.0000 0.67019  0.78344  0.15131  Biso   1.000  C 
  C6       1.0000 0.37493  0.19202  0.27642  Biso   1.000  C 
  C7       1.0000 0.16966  0.71999  0.65366  Biso   1.000  C 
  C8       1.0000 0.87483  0.69170  0.27637  Biso   1.000  C 
  C9       1.0000 0.87483  0.30941  0.77603  Biso   1.000  C 
  C10      1.0000 0.17036  0.28421  0.15086  Biso   1.000  C 
  C11      1.0000 0.36258  0.09871  0.98547  Biso   1.000  C 
  C12      1.0000 0.86222  0.40290  0.48610  Biso   1.000  C 
  C13      1.0000 0.27542  0.78574  0.63909  Biso   1.000  C 
  C14      1.0000 0.08370  0.40286  0.30287  Biso   1.000  C 
  C15      1.0000 0.33482  0.17621  0.13143  Biso   1.000  C 
  C16      1.0000 0.77592  0.71742  0.13711  Biso   1.000  C 
  C17      1.0000 0.83447  0.32587  0.63214  Biso   1.000  C 
  C18      1.0000 0.66978  0.21943  0.65366  Biso   1.000  C 
  C19      1.0000 0.58363  0.90251  0.30314  Biso   1.000  C 
  C20      1.0000 0.86249  0.59838  0.98539  Biso   1.000  C 
  C21      1.0000 0.57124  0.80904  0.01229  Biso   1.000  C 
  C22      1.0000 0.11104  0.67721  0.65849  Biso   1.000  C 
  C23      1.0000 0.07087  0.69270  0.51371  Biso   1.000  C 
  C24      1.0000 0.61141  0.82514  0.15701  Biso   1.000  C 
  C25      1.0000 0.57095  0.19245  0.51396  Biso   1.000  C 
  C26      1.0000 0.08346  0.59932  0.80379  Biso   1.000  C 
  C27      1.0000 0.58352  0.09904  0.80402  Biso   1.000  C 
  C28      1.0000 0.61113  0.17685  0.65869  Biso   1.000  C 
  C29      1.0000 0.07138  0.30944  0.01195  Biso   1.000  C 
  C30      1.0000 0.11155  0.32564  0.15669  Biso   1.000  C 
  C31      1.0000 0.27608  0.21818  0.13679  Biso   1.000  C 
  C32      1.0000 0.77554  0.28515  0.63890  Biso   1.000  C 
  Co1      1.0000 0.97307  0.46683  0.89424  Biso   1.000  Co
  Co2      1.0000 0.97295  0.53380  0.39456  Biso   1.000  Co
  Co3      1.0000 0.47305  0.96679  0.89437  Biso   1.000  Co
  Co4      1.0000 0.47295  0.03379  0.39479  Biso   1.000  Co
  H1       1.0000 0.34617  0.93845  0.34908  Biso   1.000  H 
  H2       1.0000 0.84663  0.56339  0.84753  Biso   1.000  H 
  H3       1.0000 0.84618  0.43808  0.34890  Biso   1.000  H 
  H4       1.0000 0.59945  0.06417  0.94160  Biso   1.000  H 
  H5       1.0000 0.07581  0.25887  0.87135  Biso   1.000  H 
  H6       1.0000 0.09957  0.43791  0.44069  Biso   1.000  H 
  H7       1.0000 0.34671  0.06378  0.84757  Biso   1.000  H 
  H8       1.0000 0.37038  0.75927  0.91656  Biso   1.000  H 
  H9       1.0000 0.57563  0.75839  0.87173  Biso   1.000  H 
  H10      1.0000 0.59951  0.93754  0.44095  Biso   1.000  H 
  H11      1.0000 0.09941  0.56449  0.94137  Biso   1.000  H 
  H12      1.0000 0.87042  0.74229  0.41695  Biso   1.000  H 
  H13      1.0000 0.87054  0.25893  0.91635  Biso   1.000  H 
  H14      1.0000 0.37054  0.24264  0.41699  Biso   1.000  H 
  H15      1.0000 0.57525  0.24323  0.37388  Biso   1.000  H 
  H16      1.0000 0.07514  0.74350  0.37365  Biso   1.000  H 
  N1       1.0000 0.68945  0.29094  0.49674  Biso   1.000  N 
  N2       1.0000 0.25551  0.71599  0.79760  Biso   1.000  N 
  N3       1.0000 0.03097  0.56964  0.74796  Biso   1.000  N 
  N4       1.0000 0.24425  0.17990  0.98557  Biso   1.000  N 
  N5       1.0000 0.20149  0.68244  0.80500  Biso   1.000  N 
  N6       1.0000 0.02303  0.62732  0.56831  Biso   1.000  N 
  N7       1.0000 0.53100  0.06950  0.74824  Biso   1.000  N 
  N8       1.0000 0.92292  0.37354  0.72037  Biso   1.000  N 
  N9       1.0000 0.24337  0.82509  0.48942  Biso   1.000  N 
  N10      1.0000 0.52308  0.12720  0.56859  Biso   1.000  N 
  N11      1.0000 0.53102  0.93137  0.24780  Biso   1.000  N 
  N12      1.0000 0.75607  0.78827  0.29504  Biso   1.000  N 
  N13      1.0000 0.25624  0.28922  0.29453  Biso   1.000  N 
  N14      1.0000 0.75568  0.21517  0.79723  Biso   1.000  N 
  N15      1.0000 0.02330  0.37382  0.06735  Biso   1.000  N 
  N16      1.0000 0.52321  0.87364  0.06763  Biso   1.000  N 
  N17      1.0000 0.18935  0.79153  0.49680  Biso   1.000  N 
  N18      1.0000 0.20225  0.32291  0.30168  Biso   1.000  N 
  N19      1.0000 0.69004  0.71259  0.99336  Biso   1.000  N 
  N20      1.0000 0.91506  0.56937  0.04094  Biso   1.000  N 
  N21      1.0000 0.91497  0.43131  0.54077  Biso   1.000  N 
  N22      1.0000 0.70207  0.82195  0.30227  Biso   1.000  N 
  N23      1.0000 0.70166  0.18163  0.80472  Biso   1.000  N 
  N24      1.0000 0.19026  0.21359  0.99271  Biso   1.000  N 
  N25      1.0000 0.41511  0.06949  0.04114  Biso   1.000  N 
  N26      1.0000 0.42291  0.12715  0.22135  Biso   1.000  N 
  N27      1.0000 0.41494  0.93146  0.54097  Biso   1.000  N 
  N28      1.0000 0.42285  0.87368  0.72056  Biso   1.000  N 
  N29      1.0000 0.92285  0.62703  0.22115  Biso   1.000  N 
  N30      1.0000 0.74404  0.67890  0.98615  Biso   1.000  N 
  N31      1.0000 0.03106  0.43152  0.24756  Biso   1.000  N 
  N32      1.0000 0.74346  0.32448  0.48926  Biso   1.000  N 
