data_image0
_cell_length_a       18.5612
_cell_length_b       18.2231
_cell_length_c       6.8402
_cell_angle_alpha    89.6069
_cell_angle_beta     79.3864
_cell_angle_gamma    90.0073

_symmetry_space_group_name_H-M    "P 1"
_symmetry_int_tables_number       1

loop_
  _symmetry_equiv_pos_as_xyz
  'x, y, z'

loop_
  _atom_site_label
  _atom_site_occupancy
  _atom_site_fract_x
  _atom_site_fract_y
  _atom_site_fract_z
  _atom_site_thermal_displace_type
  _atom_site_B_iso_or_equiv
  _atom_site_type_symbol
  C1       1.0000 0.37125  0.86821  0.79599  Biso   1.000  C 
  C2       1.0000 0.09630  0.41091  0.28317  Biso   1.000  C 
  C3       1.0000 0.87158  0.63373  0.29304  Biso   1.000  C 
  C4       1.0000 0.85086  0.41126  0.50559  Biso   1.000  C 
  C5       1.0000 0.82796  0.35671  0.65004  Biso   1.000  C 
  C6       1.0000 0.34985  0.09088  0.00599  Biso   1.000  C 
  C7       1.0000 0.17305  0.30001  0.14364  Biso   1.000  C 
  C8       1.0000 0.87120  0.36829  0.79585  Biso   1.000  C 
  C9       1.0000 0.82754  0.64527  0.14876  Biso   1.000  C 
  C10      1.0000 0.17346  0.70219  0.64186  Biso   1.000  C 
  C11      1.0000 0.37161  0.13372  0.29341  Biso   1.000  C 
  C12      1.0000 0.67300  0.79996  0.14359  Biso   1.000  C 
  C13      1.0000 0.35084  0.91129  0.50593  Biso   1.000  C 
  C14      1.0000 0.32799  0.85667  0.65022  Biso   1.000  C 
  C15      1.0000 0.32755  0.14528  0.14917  Biso   1.000  C 
  C16      1.0000 0.27235  0.80121  0.64795  Biso   1.000  C 
  C17      1.0000 0.84986  0.59087  0.00563  Biso   1.000  C 
  C18      1.0000 0.67333  0.20231  0.64219  Biso   1.000  C 
  C19      1.0000 0.27177  0.20066  0.14796  Biso   1.000  C 
  C20      1.0000 0.11806  0.35609  0.14088  Biso   1.000  C 
  C21      1.0000 0.07424  0.36794  0.99619  Biso   1.000  C 
  C22      1.0000 0.77176  0.70066  0.14756  Biso   1.000  C 
  C23      1.0000 0.61813  0.14646  0.63922  Biso   1.000  C 
  C24      1.0000 0.59548  0.09175  0.78339  Biso   1.000  C 
  C25      1.0000 0.77226  0.30130  0.64799  Biso   1.000  C 
  C26      1.0000 0.57512  0.13460  0.49305  Biso   1.000  C 
  C27      1.0000 0.61798  0.85603  0.14104  Biso   1.000  C 
  C28      1.0000 0.07514  0.63459  0.49283  Biso   1.000  C 
  C29      1.0000 0.11822  0.64638  0.63889  Biso   1.000  C 
  C30      1.0000 0.57416  0.86793  0.99641  Biso   1.000  C 
  C31      1.0000 0.09555  0.59166  0.78301  Biso   1.000  C 
  C32      1.0000 0.59627  0.91083  0.28339  Biso   1.000  C 
  Co1      1.0000 0.97384  0.51689  0.39348  Biso   1.000  Co
  Co2      1.0000 0.97298  0.48552  0.89449  Biso   1.000  Co
  Co3      1.0000 0.47385  0.01688  0.39383  Biso   1.000  Co
  Co4      1.0000 0.47297  0.98552  0.89475  Biso   1.000  Co
  H1       1.0000 0.83033  0.58004  0.86848  Biso   1.000  H 
  H2       1.0000 0.83196  0.42211  0.36719  Biso   1.000  H 
  H3       1.0000 0.61430  0.08102  0.92195  Biso   1.000  H 
  H4       1.0000 0.07391  0.33852  0.85895  Biso   1.000  H 
  H5       1.0000 0.11585  0.42167  0.42028  Biso   1.000  H 
  H6       1.0000 0.37071  0.83885  0.93485  Biso   1.000  H 
  H7       1.0000 0.33192  0.92220  0.36759  Biso   1.000  H 
  H8       1.0000 0.33031  0.08008  0.86887  Biso   1.000  H 
  H9       1.0000 0.11441  0.58088  0.92149  Biso   1.000  H 
  H10      1.0000 0.07562  0.66396  0.35401  Biso   1.000  H 
  H11      1.0000 0.61585  0.92154  0.42048  Biso   1.000  H 
  H12      1.0000 0.57378  0.83853  0.85916  Biso   1.000  H 
  H13      1.0000 0.87162  0.66298  0.43069  Biso   1.000  H 
  H14      1.0000 0.87062  0.33897  0.93482  Biso   1.000  H 
  H15      1.0000 0.37169  0.16295  0.43107  Biso   1.000  H 
  H16      1.0000 0.57564  0.16393  0.35415  Biso   1.000  H 
  N1       1.0000 0.75983  0.74891  0.30059  Biso   1.000  N 
  N2       1.0000 0.54333  0.95202  0.22731  Biso   1.000  N 
  N3       1.0000 0.53009  0.07720  0.54744  Biso   1.000  N 
  N4       1.0000 0.54277  0.05066  0.72692  Biso   1.000  N 
  N5       1.0000 0.91659  0.42537  0.74096  Biso   1.000  N 
  N6       1.0000 0.75940  0.25266  0.80186  Biso   1.000  N 
  N7       1.0000 0.03007  0.57722  0.54720  Biso   1.000  N 
  N8       1.0000 0.20913  0.70200  0.79841  Biso   1.000  N 
  N9       1.0000 0.23474  0.20055  0.99413  Biso   1.000  N 
  N10      1.0000 0.04279  0.55063  0.72660  Biso   1.000  N 
  N11      1.0000 0.25958  0.75244  0.80152  Biso   1.000  N 
  N12      1.0000 0.68580  0.25129  0.48909  Biso   1.000  N 
  N13      1.0000 0.02961  0.42539  0.04961  Biso   1.000  N 
  N14      1.0000 0.23638  0.80167  0.49199  Biso   1.000  N 
  N15      1.0000 0.73469  0.70055  0.99383  Biso   1.000  N 
  N16      1.0000 0.04334  0.45204  0.22701  Biso   1.000  N 
  N17      1.0000 0.90392  0.45200  0.56157  Biso   1.000  N 
  N18      1.0000 0.91684  0.57682  0.23869  Biso   1.000  N 
  N19      1.0000 0.41663  0.92531  0.74121  Biso   1.000  N 
  N20      1.0000 0.40391  0.95201  0.56193  Biso   1.000  N 
  N21      1.0000 0.41686  0.07681  0.23899  Biso   1.000  N 
  N22      1.0000 0.40332  0.05024  0.06133  Biso   1.000  N 
  N23      1.0000 0.18438  0.25118  0.99194  Biso   1.000  N 
  N24      1.0000 0.18592  0.75122  0.48887  Biso   1.000  N 
  N25      1.0000 0.70944  0.79952  0.29857  Biso   1.000  N 
  N26      1.0000 0.70891  0.20223  0.79892  Biso   1.000  N 
  N27      1.0000 0.90331  0.55024  0.06103  Biso   1.000  N 
  N28      1.0000 0.68431  0.75117  0.99180  Biso   1.000  N 
  N29      1.0000 0.20941  0.29954  0.29881  Biso   1.000  N 
  N30      1.0000 0.52957  0.92540  0.04991  Biso   1.000  N 
  N31      1.0000 0.25978  0.24891  0.30099  Biso   1.000  N 
  N32      1.0000 0.73627  0.30173  0.49204  Biso   1.000  N 
