data_image0
_cell_length_a       18.6808
_cell_length_b       18.0684
_cell_length_c       7.01859
_cell_angle_alpha    90.0293
_cell_angle_beta     82.9546
_cell_angle_gamma    89.9852

_symmetry_space_group_name_H-M    "P 1"
_symmetry_int_tables_number       1

loop_
  _symmetry_equiv_pos_as_xyz
  'x, y, z'

loop_
  _atom_site_label
  _atom_site_occupancy
  _atom_site_fract_x
  _atom_site_fract_y
  _atom_site_fract_z
  _atom_site_thermal_displace_type
  _atom_site_B_iso_or_equiv
  _atom_site_type_symbol
  C1       1.0000 0.37104  0.87203  0.79254  Biso   1.000  C 
  C2       1.0000 0.59372  0.90724  0.28998  Biso   1.000  C 
  C3       1.0000 0.09389  0.59505  0.78994  Biso   1.000  C 
  C4       1.0000 0.57483  0.87200  0.99680  Biso   1.000  C 
  C5       1.0000 0.11762  0.64579  0.64387  Biso   1.000  C 
  C6       1.0000 0.07483  0.63039  0.49702  Biso   1.000  C 
  C7       1.0000 0.61745  0.85646  0.14387  Biso   1.000  C 
  C8       1.0000 0.57484  0.13039  0.49702  Biso   1.000  C 
  C9       1.0000 0.77277  0.30068  0.64494  Biso   1.000  C 
  C10      1.0000 0.59389  0.09504  0.78993  Biso   1.000  C 
  C11      1.0000 0.61762  0.14579  0.64389  Biso   1.000  C 
  C12      1.0000 0.07486  0.37203  0.99682  Biso   1.000  C 
  C13      1.0000 0.11748  0.35649  0.14391  Biso   1.000  C 
  C14      1.0000 0.27248  0.20142  0.14561  Biso   1.000  C 
  C15      1.0000 0.67347  0.20136  0.64419  Biso   1.000  C 
  C16      1.0000 0.85196  0.59498  0.99996  Biso   1.000  C 
  C17      1.0000 0.77244  0.70137  0.14564  Biso   1.000  C 
  C18      1.0000 0.32825  0.14576  0.14610  Biso   1.000  C 
  C19      1.0000 0.09373  0.40726  0.29003  Biso   1.000  C 
  C20      1.0000 0.27277  0.80068  0.64487  Biso   1.000  C 
  C21      1.0000 0.85205  0.40727  0.49955  Biso   1.000  C 
  C22      1.0000 0.82836  0.35650  0.64561  Biso   1.000  C 
  C23      1.0000 0.35198  0.09500  0.99995  Biso   1.000  C 
  C24      1.0000 0.17316  0.30076  0.14460  Biso   1.000  C 
  C25      1.0000 0.87104  0.37202  0.79260  Biso   1.000  C 
  C26      1.0000 0.87096  0.63029  0.29302  Biso   1.000  C 
  C27      1.0000 0.17346  0.70136  0.64415  Biso   1.000  C 
  C28      1.0000 0.37098  0.13031  0.29301  Biso   1.000  C 
  C29      1.0000 0.67312  0.80070  0.14459  Biso   1.000  C 
  C30      1.0000 0.35205  0.90727  0.49948  Biso   1.000  C 
  C31      1.0000 0.32836  0.85650  0.64554  Biso   1.000  C 
  C32      1.0000 0.82822  0.64573  0.14611  Biso   1.000  C 
  Co1      1.0000 0.47297  0.98953  0.89462  Biso   1.000  Co
  Co2      1.0000 0.47294  0.01288  0.39493  Biso   1.000  Co
  Co3      1.0000 0.97293  0.51288  0.39496  Biso   1.000  Co
  Co4      1.0000 0.97298  0.48952  0.89467  Biso   1.000  Co
  H1       1.0000 0.07592  0.65621  0.35711  Biso   1.000  H 
  H2       1.0000 0.57592  0.15622  0.35712  Biso   1.000  H 
  H3       1.0000 0.36992  0.15614  0.43294  Biso   1.000  H 
  H4       1.0000 0.87000  0.34619  0.93248  Biso   1.000  H 
  H5       1.0000 0.86989  0.65612  0.43298  Biso   1.000  H 
  H6       1.0000 0.57594  0.84616  0.85682  Biso   1.000  H 
  H7       1.0000 0.61199  0.91441  0.42978  Biso   1.000  H 
  H8       1.0000 0.11222  0.58775  0.92962  Biso   1.000  H 
  H9       1.0000 0.37000  0.84620  0.93242  Biso   1.000  H 
  H10      1.0000 0.33381  0.91449  0.35965  Biso   1.000  H 
  H11      1.0000 0.33359  0.08777  0.86033  Biso   1.000  H 
  H12      1.0000 0.11200  0.41443  0.42982  Biso   1.000  H 
  H13      1.0000 0.07599  0.34620  0.85684  Biso   1.000  H 
  H14      1.0000 0.61221  0.08773  0.92962  Biso   1.000  H 
  H15      1.0000 0.83381  0.41449  0.35973  Biso   1.000  H 
  H16      1.0000 0.83357  0.58773  0.86034  Biso   1.000  H 
  N1       1.0000 0.91668  0.57461  0.23774  Biso   1.000  N 
  N2       1.0000 0.41667  0.92776  0.73746  Biso   1.000  N 
  N3       1.0000 0.40497  0.94955  0.55578  Biso   1.000  N 
  N4       1.0000 0.41670  0.07462  0.23772  Biso   1.000  N 
  N5       1.0000 0.40498  0.05279  0.05601  Biso   1.000  N 
  N6       1.0000 0.18540  0.25552  0.98934  Biso   1.000  N 
  N7       1.0000 0.71018  0.20469  0.79950  Biso   1.000  N 
  N8       1.0000 0.70946  0.79713  0.30056  Biso   1.000  N 
  N9       1.0000 0.90497  0.44954  0.55582  Biso   1.000  N 
  N10      1.0000 0.90497  0.55278  0.05603  Biso   1.000  N 
  N11      1.0000 0.68534  0.75545  0.98937  Biso   1.000  N 
  N12      1.0000 0.20953  0.29720  0.30054  Biso   1.000  N 
  N13      1.0000 0.52918  0.92777  0.05189  Biso   1.000  N 
  N14      1.0000 0.18565  0.74652  0.48886  Biso   1.000  N 
  N15      1.0000 0.04084  0.44956  0.23374  Biso   1.000  N 
  N16      1.0000 0.02920  0.42778  0.05192  Biso   1.000  N 
  N17      1.0000 0.23628  0.79712  0.48919  Biso   1.000  N 
  N18      1.0000 0.68565  0.24652  0.48891  Biso   1.000  N 
  N19      1.0000 0.26080  0.75530  0.79980  Biso   1.000  N 
  N20      1.0000 0.04089  0.55287  0.73376  Biso   1.000  N 
  N21      1.0000 0.23603  0.20491  0.98983  Biso   1.000  N 
  N22      1.0000 0.21018  0.70470  0.79945  Biso   1.000  N 
  N23      1.0000 0.02913  0.57471  0.55215  Biso   1.000  N 
  N24      1.0000 0.76080  0.25530  0.79986  Biso   1.000  N 
  N25      1.0000 0.91668  0.42775  0.73752  Biso   1.000  N 
  N26      1.0000 0.54089  0.05286  0.73372  Biso   1.000  N 
  N27      1.0000 0.52914  0.07471  0.55213  Biso   1.000  N 
  N28      1.0000 0.54083  0.94955  0.23369  Biso   1.000  N 
  N29      1.0000 0.76009  0.74652  0.30108  Biso   1.000  N 
  N30      1.0000 0.26017  0.24659  0.30102  Biso   1.000  N 
  N31      1.0000 0.73598  0.70484  0.98986  Biso   1.000  N 
  N32      1.0000 0.73628  0.29712  0.48925  Biso   1.000  N 
