data_image0
_cell_length_a       20.3001
_cell_length_b       16.3259
_cell_length_c       6.50264
_cell_angle_alpha    90.1593
_cell_angle_beta     76.5556
_cell_angle_gamma    90.0022

_symmetry_space_group_name_H-M    "P 1"
_symmetry_int_tables_number       1

loop_
  _symmetry_equiv_pos_as_xyz
  'x, y, z'

loop_
  _atom_site_label
  _atom_site_occupancy
  _atom_site_fract_x
  _atom_site_fract_y
  _atom_site_fract_z
  _atom_site_thermal_displace_type
  _atom_site_B_iso_or_equiv
  _atom_site_type_symbol
  C1       1.0000 0.37211  0.85335  0.79253  Biso   1.000  C 
  C2       1.0000 0.09351  0.41822  0.27769  Biso   1.000  C 
  C3       1.0000 0.87209  0.64880  0.29344  Biso   1.000  C 
  C4       1.0000 0.85231  0.41804  0.51144  Biso   1.000  C 
  C5       1.0000 0.82894  0.35333  0.65154  Biso   1.000  C 
  C6       1.0000 0.35253  0.08400  0.01155  Biso   1.000  C 
  C7       1.0000 0.17321  0.29934  0.14034  Biso   1.000  C 
  C8       1.0000 0.87222  0.35332  0.79211  Biso   1.000  C 
  C9       1.0000 0.82906  0.64882  0.15208  Biso   1.000  C 
  C10      1.0000 0.17266  0.70321  0.64159  Biso   1.000  C 
  C11      1.0000 0.37218  0.14881  0.29335  Biso   1.000  C 
  C12      1.0000 0.67306  0.79917  0.14061  Biso   1.000  C 
  C13      1.0000 0.35230  0.91812  0.51182  Biso   1.000  C 
  C14      1.0000 0.32883  0.85346  0.65196  Biso   1.000  C 
  C15      1.0000 0.32916  0.14893  0.15196  Biso   1.000  C 
  C16      1.0000 0.27265  0.79947  0.64922  Biso   1.000  C 
  C17      1.0000 0.85252  0.58394  0.01161  Biso   1.000  C 
  C18      1.0000 0.67272  0.20310  0.64149  Biso   1.000  C 
  C19      1.0000 0.27321  0.20323  0.14861  Biso   1.000  C 
  C20      1.0000 0.11711  0.35342  0.13711  Biso   1.000  C 
  C21      1.0000 0.07408  0.35335  0.99572  Biso   1.000  C 
  C22      1.0000 0.77307  0.70307  0.14876  Biso   1.000  C 
  C23      1.0000 0.61677  0.14877  0.63811  Biso   1.000  C 
  C24      1.0000 0.59349  0.08392  0.77786  Biso   1.000  C 
  C25      1.0000 0.77275  0.29931  0.64898  Biso   1.000  C 
  C26      1.0000 0.57351  0.14879  0.49746  Biso   1.000  C 
  C27      1.0000 0.61698  0.85329  0.13748  Biso   1.000  C 
  C28      1.0000 0.07349  0.64880  0.49758  Biso   1.000  C 
  C29      1.0000 0.11674  0.64885  0.63824  Biso   1.000  C 
  C30      1.0000 0.57397  0.85329  0.99607  Biso   1.000  C 
  C31      1.0000 0.09353  0.58397  0.77793  Biso   1.000  C 
  C32      1.0000 0.59346  0.91813  0.27800  Biso   1.000  C 
  Co1      1.0000 0.97282  0.52697  0.39490  Biso   1.000  Co
  Co2      1.0000 0.97309  0.47496  0.89433  Biso   1.000  Co
  Co3      1.0000 0.47283  0.02695  0.39502  Biso   1.000  Co
  Co4      1.0000 0.47307  0.97496  0.89452  Biso   1.000  Co
  H1       1.0000 0.83397  0.56271  0.87718  Biso   1.000  H 
  H2       1.0000 0.83356  0.43922  0.37766  Biso   1.000  H 
  H3       1.0000 0.61228  0.06266  0.91154  Biso   1.000  H 
  H4       1.0000 0.07532  0.31424  0.85970  Biso   1.000  H 
  H5       1.0000 0.11202  0.43953  0.41211  Biso   1.000  H 
  H6       1.0000 0.37102  0.81433  0.92808  Biso   1.000  H 
  H7       1.0000 0.33358  0.93936  0.37800  Biso   1.000  H 
  H8       1.0000 0.33394  0.06285  0.87714  Biso   1.000  H 
  H9       1.0000 0.11230  0.56273  0.91166  Biso   1.000  H 
  H10      1.0000 0.07441  0.68798  0.36242  Biso   1.000  H 
  H11      1.0000 0.61199  0.93936  0.41246  Biso   1.000  H 
  H12      1.0000 0.57513  0.81416  0.86011  Biso   1.000  H 
  H13      1.0000 0.87094  0.68791  0.42945  Biso   1.000  H 
  H14      1.0000 0.87122  0.31426  0.92755  Biso   1.000  H 
  H15      1.0000 0.37113  0.18792  0.42928  Biso   1.000  H 
  H16      1.0000 0.57448  0.18792  0.36220  Biso   1.000  H 
  N1       1.0000 0.75833  0.76260  0.29869  Biso   1.000  N 
  N2       1.0000 0.54017  0.95367  0.22401  Biso   1.000  N 
  N3       1.0000 0.52750  0.08867  0.55169  Biso   1.000  N 
  N4       1.0000 0.54007  0.04844  0.72420  Biso   1.000  N 
  N5       1.0000 0.91830  0.41337  0.73761  Biso   1.000  N 
  N6       1.0000 0.75820  0.23998  0.79865  Biso   1.000  N 
  N7       1.0000 0.02755  0.58858  0.55171  Biso   1.000  N 
  N8       1.0000 0.20704  0.69108  0.79498  Biso   1.000  N 
  N9       1.0000 0.23914  0.19094  0.99433  Biso   1.000  N 
  N10      1.0000 0.04015  0.54838  0.72421  Biso   1.000  N 
  N11      1.0000 0.25810  0.74014  0.79884  Biso   1.000  N 
  N12      1.0000 0.68703  0.26272  0.49257  Biso   1.000  N 
  N13      1.0000 0.02792  0.41342  0.05026  Biso   1.000  N 
  N14      1.0000 0.23805  0.81188  0.49648  Biso   1.000  N 
  N15      1.0000 0.73898  0.69078  0.99455  Biso   1.000  N 
  N16      1.0000 0.04015  0.45365  0.22377  Biso   1.000  N 
  N17      1.0000 0.90577  0.45351  0.56491  Biso   1.000  N 
  N18      1.0000 0.91814  0.58859  0.23890  Biso   1.000  N 
  N19      1.0000 0.41830  0.91328  0.73797  Biso   1.000  N 
  N20      1.0000 0.40582  0.95345  0.56523  Biso   1.000  N 
  N21      1.0000 0.41812  0.08848  0.23892  Biso   1.000  N 
  N22      1.0000 0.40576  0.04830  0.06554  Biso   1.000  N 
  N23      1.0000 0.18807  0.23992  0.99012  Biso   1.000  N 
  N24      1.0000 0.18698  0.76282  0.49264  Biso   1.000  N 
  N25      1.0000 0.70724  0.81158  0.29459  Biso   1.000  N 
  N26      1.0000 0.70710  0.19095  0.79488  Biso   1.000  N 
  N27      1.0000 0.90582  0.54837  0.06549  Biso   1.000  N 
  N28      1.0000 0.68790  0.73976  0.99041  Biso   1.000  N 
  N29      1.0000 0.20736  0.31174  0.29435  Biso   1.000  N 
  N30      1.0000 0.52789  0.91347  0.05053  Biso   1.000  N 
  N31      1.0000 0.25845  0.26277  0.29854  Biso   1.000  N 
  N32      1.0000 0.73810  0.31176  0.49638  Biso   1.000  N 
