data_image0
_cell_length_a       23.7984
_cell_length_b       9.36926
_cell_length_c       6.82822
_cell_angle_alpha    90.0851
_cell_angle_beta     88.211
_cell_angle_gamma    90.0004

_symmetry_space_group_name_H-M    "P 1"
_symmetry_int_tables_number       1

loop_
  _symmetry_equiv_pos_as_xyz
  'x, y, z'

loop_
  _atom_site_label
  _atom_site_occupancy
  _atom_site_fract_x
  _atom_site_fract_y
  _atom_site_fract_z
  _atom_site_thermal_displace_type
  _atom_site_B_iso_or_equiv
  _atom_site_type_symbol
  C1       1.0000 0.37480  0.79542  0.77406  Biso   1.000  C 
  C2       1.0000 0.77582  0.27846  0.63654  Biso   1.000  C 
  C3       1.0000 0.27634  0.22524  0.13492  Biso   1.000  C 
  C4       1.0000 0.11099  0.31426  0.16022  Biso   1.000  C 
  C5       1.0000 0.07114  0.29526  0.01466  Biso   1.000  C 
  C6       1.0000 0.61063  0.18789  0.66147  Biso   1.000  C 
  C7       1.0000 0.58253  0.10695  0.80725  Biso   1.000  C 
  C8       1.0000 0.08244  0.60745  0.80709  Biso   1.000  C 
  C9       1.0000 0.57075  0.20638  0.51599  Biso   1.000  C 
  C10      1.0000 0.61086  0.81370  0.16062  Biso   1.000  C 
  C11      1.0000 0.07064  0.70672  0.51572  Biso   1.000  C 
  C12      1.0000 0.57103  0.79485  0.01500  Biso   1.000  C 
  C13      1.0000 0.86348  0.60711  0.98210  Biso   1.000  C 
  C14      1.0000 0.58258  0.89404  0.30697  Biso   1.000  C 
  C15      1.0000 0.66961  0.22570  0.65506  Biso   1.000  C 
  C16      1.0000 0.83501  0.31416  0.62879  Biso   1.000  C 
  C17      1.0000 0.11050  0.68845  0.66129  Biso   1.000  C 
  C18      1.0000 0.33538  0.18810  0.12828  Biso   1.000  C 
  C19      1.0000 0.83526  0.68757  0.12844  Biso   1.000  C 
  C20      1.0000 0.77618  0.72439  0.13536  Biso   1.000  C 
  C21      1.0000 0.36322  0.89459  0.48253  Biso   1.000  C 
  C22      1.0000 0.66995  0.77704  0.15361  Biso   1.000  C 
  C23      1.0000 0.37520  0.20639  0.27412  Biso   1.000  C 
  C24      1.0000 0.16946  0.72647  0.65504  Biso   1.000  C 
  C25      1.0000 0.87510  0.70605  0.27417  Biso   1.000  C 
  C26      1.0000 0.33488  0.81469  0.62888  Biso   1.000  C 
  C27      1.0000 0.17011  0.27789  0.15305  Biso   1.000  C 
  C28      1.0000 0.36359  0.10751  0.98203  Biso   1.000  C 
  C29      1.0000 0.86329  0.39417  0.48243  Biso   1.000  C 
  C30      1.0000 0.27567  0.77922  0.63667  Biso   1.000  C 
  C31      1.0000 0.08267  0.39443  0.30664  Biso   1.000  C 
  C32      1.0000 0.87494  0.29506  0.77396  Biso   1.000  C 
  Co1      1.0000 0.47296  0.03473  0.39482  Biso   1.000  Co
  Co2      1.0000 0.47300  0.96552  0.89460  Biso   1.000  Co
  Co3      1.0000 0.97301  0.46564  0.89442  Biso   1.000  Co
  Co4      1.0000 0.97295  0.53469  0.39458  Biso   1.000  Co
  H1       1.0000 0.59816  0.93158  0.44545  Biso   1.000  H 
  H2       1.0000 0.07526  0.75984  0.37502  Biso   1.000  H 
  H3       1.0000 0.57539  0.25956  0.37534  Biso   1.000  H 
  H4       1.0000 0.37047  0.25929  0.41518  Biso   1.000  H 
  H5       1.0000 0.87020  0.24232  0.91490  Biso   1.000  H 
  H6       1.0000 0.87035  0.75887  0.41526  Biso   1.000  H 
  H7       1.0000 0.09810  0.57012  0.94541  Biso   1.000  H 
  H8       1.0000 0.57581  0.74197  0.87396  Biso   1.000  H 
  H9       1.0000 0.09823  0.43204  0.44512  Biso   1.000  H 
  H10      1.0000 0.34800  0.07023  0.84345  Biso   1.000  H 
  H11      1.0000 0.37003  0.74273  0.91502  Biso   1.000  H 
  H12      1.0000 0.07595  0.24245  0.87357  Biso   1.000  H 
  H13      1.0000 0.59818  0.06950  0.94552  Biso   1.000  H 
  H14      1.0000 0.84765  0.43183  0.34426  Biso   1.000  H 
  H15      1.0000 0.84789  0.56977  0.84355  Biso   1.000  H 
  H16      1.0000 0.34762  0.93232  0.34434  Biso   1.000  H 
  N1       1.0000 0.20163  0.32570  0.30209  Biso   1.000  N 
  N2       1.0000 0.69042  0.70377  0.99535  Biso   1.000  N 
  N3       1.0000 0.91590  0.57783  0.03854  Biso   1.000  N 
  N4       1.0000 0.91583  0.42269  0.53840  Biso   1.000  N 
  N5       1.0000 0.70147  0.82463  0.30279  Biso   1.000  N 
  N6       1.0000 0.70112  0.17901  0.80457  Biso   1.000  N 
  N7       1.0000 0.42331  0.13904  0.21986  Biso   1.000  N 
  N8       1.0000 0.41597  0.07798  0.03864  Biso   1.000  N 
  N9       1.0000 0.18979  0.80083  0.49787  Biso   1.000  N 
  N10      1.0000 0.41578  0.92290  0.53854  Biso   1.000  N 
  N11      1.0000 0.42310  0.86167  0.71944  Biso   1.000  N 
  N12      1.0000 0.92324  0.63891  0.21975  Biso   1.000  N 
  N13      1.0000 0.74467  0.67692  0.98609  Biso   1.000  N 
  N14      1.0000 0.19061  0.20489  0.99459  Biso   1.000  N 
  N15      1.0000 0.52281  0.86164  0.06948  Biso   1.000  N 
  N16      1.0000 0.25588  0.29884  0.29289  Biso   1.000  N 
  N17      1.0000 0.75536  0.20592  0.79519  Biso   1.000  N 
  N18      1.0000 0.75572  0.79777  0.29354  Biso   1.000  N 
  N19      1.0000 0.53011  0.92287  0.25062  Biso   1.000  N 
  N20      1.0000 0.52267  0.13887  0.57006  Biso   1.000  N 
  N21      1.0000 0.24404  0.82775  0.48858  Biso   1.000  N 
  N22      1.0000 0.92320  0.36150  0.71930  Biso   1.000  N 
  N23      1.0000 0.53012  0.07748  0.75075  Biso   1.000  N 
  N24      1.0000 0.02260  0.63906  0.56977  Biso   1.000  N 
  N25      1.0000 0.20094  0.68004  0.80480  Biso   1.000  N 
  N26      1.0000 0.24486  0.17802  0.98541  Biso   1.000  N 
  N27      1.0000 0.03006  0.57777  0.75052  Biso   1.000  N 
  N28      1.0000 0.25518  0.70693  0.79548  Biso   1.000  N 
  N29      1.0000 0.68992  0.30001  0.49782  Biso   1.000  N 
  N30      1.0000 0.03017  0.42305  0.25038  Biso   1.000  N 
  N31      1.0000 0.02288  0.36184  0.06921  Biso   1.000  N 
  N32      1.0000 0.74417  0.32693  0.48844  Biso   1.000  N 
