data_image0
_cell_length_a       18.5788
_cell_length_b       18.1922
_cell_length_c       6.92436
_cell_angle_alpha    90.0704
_cell_angle_beta     81.2255
_cell_angle_gamma    90.0016

_symmetry_space_group_name_H-M    "P 1"
_symmetry_int_tables_number       1

loop_
  _symmetry_equiv_pos_as_xyz
  'x, y, z'

loop_
  _atom_site_label
  _atom_site_occupancy
  _atom_site_fract_x
  _atom_site_fract_y
  _atom_site_fract_z
  _atom_site_thermal_displace_type
  _atom_site_B_iso_or_equiv
  _atom_site_type_symbol
  C1       1.0000 0.37181  0.86974  0.79229  Biso   1.000  C 
  C2       1.0000 0.09482  0.40934  0.28754  Biso   1.000  C 
  C3       1.0000 0.87144  0.63249  0.29340  Biso   1.000  C 
  C4       1.0000 0.85070  0.40940  0.50244  Biso   1.000  C 
  C5       1.0000 0.82821  0.35637  0.64667  Biso   1.000  C 
  C6       1.0000 0.35092  0.09323  0.00235  Biso   1.000  C 
  C7       1.0000 0.17315  0.30070  0.14419  Biso   1.000  C 
  C8       1.0000 0.87180  0.36972  0.79234  Biso   1.000  C 
  C9       1.0000 0.82808  0.64598  0.14741  Biso   1.000  C 
  C10      1.0000 0.17362  0.70131  0.64341  Biso   1.000  C 
  C11      1.0000 0.37144  0.13250  0.29337  Biso   1.000  C 
  C12      1.0000 0.67312  0.80067  0.14429  Biso   1.000  C 
  C13      1.0000 0.35067  0.90939  0.50242  Biso   1.000  C 
  C14      1.0000 0.32821  0.85637  0.64668  Biso   1.000  C 
  C15      1.0000 0.32808  0.14600  0.14738  Biso   1.000  C 
  C16      1.0000 0.27273  0.80057  0.64550  Biso   1.000  C 
  C17      1.0000 0.85092  0.59320  0.00240  Biso   1.000  C 
  C18      1.0000 0.67360  0.20131  0.64345  Biso   1.000  C 
  C19      1.0000 0.27240  0.20161  0.14645  Biso   1.000  C 
  C20      1.0000 0.11757  0.35640  0.14291  Biso   1.000  C 
  C21      1.0000 0.07425  0.36982  0.99677  Biso   1.000  C 
  C22      1.0000 0.77238  0.70157  0.14654  Biso   1.000  C 
  C23      1.0000 0.61790  0.14571  0.64253  Biso   1.000  C 
  C24      1.0000 0.59520  0.09280  0.78692  Biso   1.000  C 
  C25      1.0000 0.77271  0.30058  0.64547  Biso   1.000  C 
  C26      1.0000 0.57431  0.13244  0.49681  Biso   1.000  C 
  C27      1.0000 0.61757  0.85639  0.14293  Biso   1.000  C 
  C28      1.0000 0.07430  0.63247  0.49679  Biso   1.000  C 
  C29      1.0000 0.11791  0.64572  0.64246  Biso   1.000  C 
  C30      1.0000 0.57427  0.86980  0.99672  Biso   1.000  C 
  C31      1.0000 0.09521  0.59283  0.78688  Biso   1.000  C 
  C32      1.0000 0.59481  0.90934  0.28751  Biso   1.000  C 
  Co1      1.0000 0.97280  0.51492  0.39493  Biso   1.000  Co
  Co2      1.0000 0.97299  0.48744  0.89471  Biso   1.000  Co
  Co3      1.0000 0.47279  0.01493  0.39485  Biso   1.000  Co
  Co4      1.0000 0.47297  0.98743  0.89468  Biso   1.000  Co
  H1       1.0000 0.83194  0.58414  0.86363  Biso   1.000  H 
  H2       1.0000 0.83149  0.41863  0.36411  Biso   1.000  H 
  H3       1.0000 0.61435  0.08352  0.92531  Biso   1.000  H 
  H4       1.0000 0.07461  0.34199  0.85786  Biso   1.000  H 
  H5       1.0000 0.11379  0.41848  0.42629  Biso   1.000  H 
  H6       1.0000 0.37174  0.84186  0.93083  Biso   1.000  H 
  H7       1.0000 0.33143  0.91859  0.36411  Biso   1.000  H 
  H8       1.0000 0.33193  0.08420  0.86358  Biso   1.000  H 
  H9       1.0000 0.11439  0.58357  0.92524  Biso   1.000  H 
  H10      1.0000 0.07457  0.66032  0.35813  Biso   1.000  H 
  H11      1.0000 0.61377  0.91852  0.42626  Biso   1.000  H 
  H12      1.0000 0.57466  0.84197  0.85783  Biso   1.000  H 
  H13      1.0000 0.87102  0.66014  0.43257  Biso   1.000  H 
  H14      1.0000 0.87169  0.34182  0.93085  Biso   1.000  H 
  H15      1.0000 0.37103  0.16015  0.43253  Biso   1.000  H 
  H16      1.0000 0.57458  0.16029  0.35815  Biso   1.000  H 
  N1       1.0000 0.76070  0.74880  0.30022  Biso   1.000  N 
  N2       1.0000 0.54179  0.95089  0.23117  Biso   1.000  N 
  N3       1.0000 0.52903  0.07594  0.55130  Biso   1.000  N 
  N4       1.0000 0.54196  0.05141  0.73094  Biso   1.000  N 
  N5       1.0000 0.91688  0.42638  0.73801  Biso   1.000  N 
  N6       1.0000 0.76148  0.25317  0.79853  Biso   1.000  N 
  N7       1.0000 0.02901  0.57598  0.55131  Biso   1.000  N 
  N8       1.0000 0.21095  0.70256  0.79746  Biso   1.000  N 
  N9       1.0000 0.23532  0.20286  0.99187  Biso   1.000  N 
  N10      1.0000 0.04195  0.55145  0.73095  Biso   1.000  N 
  N11      1.0000 0.26150  0.75315  0.79852  Biso   1.000  N 
  N12      1.0000 0.68501  0.24856  0.49007  Biso   1.000  N 
  N13      1.0000 0.02907  0.42645  0.05119  Biso   1.000  N 
  N14      1.0000 0.23558  0.79914  0.49106  Biso   1.000  N 
  N15      1.0000 0.73527  0.70280  0.99201  Biso   1.000  N 
  N16      1.0000 0.04180  0.45090  0.23126  Biso   1.000  N 
  N17      1.0000 0.90383  0.45093  0.55851  Biso   1.000  N 
  N18      1.0000 0.91671  0.57597  0.23855  Biso   1.000  N 
  N19      1.0000 0.41687  0.92642  0.73791  Biso   1.000  N 
  N20      1.0000 0.40380  0.95096  0.55841  Biso   1.000  N 
  N21      1.0000 0.41670  0.07597  0.23851  Biso   1.000  N 
  N22      1.0000 0.40401  0.05167  0.05829  Biso   1.000  N 
  N23      1.0000 0.18470  0.25335  0.99072  Biso   1.000  N 
  N24      1.0000 0.18503  0.74857  0.49001  Biso   1.000  N 
  N25      1.0000 0.71008  0.79930  0.29907  Biso   1.000  N 
  N26      1.0000 0.71094  0.20258  0.79749  Biso   1.000  N 
  N27      1.0000 0.90402  0.55165  0.05833  Biso   1.000  N 
  N28      1.0000 0.68466  0.75329  0.99086  Biso   1.000  N 
  N29      1.0000 0.21012  0.29936  0.29895  Biso   1.000  N 
  N30      1.0000 0.52908  0.92643  0.05110  Biso   1.000  N 
  N31      1.0000 0.26074  0.24886  0.30010  Biso   1.000  N 
  N32      1.0000 0.73556  0.29914  0.49107  Biso   1.000  N 
