data_image0
_cell_length_a       24.2205
_cell_length_b       7.01396
_cell_length_c       7.03336
_cell_angle_alpha    90.2298
_cell_angle_beta     90.8068
_cell_angle_gamma    89.997

_symmetry_space_group_name_H-M    "P 1"
_symmetry_int_tables_number       1

loop_
  _symmetry_equiv_pos_as_xyz
  'x, y, z'

loop_
  _atom_site_label
  _atom_site_occupancy
  _atom_site_fract_x
  _atom_site_fract_y
  _atom_site_fract_z
  _atom_site_thermal_displace_type
  _atom_site_B_iso_or_equiv
  _atom_site_type_symbol
  C1       1.0000 0.37463  0.74908  0.77180  Biso   1.000  C 
  C2       1.0000 0.87469  0.24872  0.77162  Biso   1.000  C 
  C3       1.0000 0.08087  0.35801  0.31142  Biso   1.000  C 
  C4       1.0000 0.27574  0.75482  0.63375  Biso   1.000  C 
  C5       1.0000 0.86490  0.35814  0.47742  Biso   1.000  C 
  C6       1.0000 0.36526  0.14367  0.97746  Biso   1.000  C 
  C7       1.0000 0.17011  0.25402  0.15558  Biso   1.000  C 
  C8       1.0000 0.33529  0.77240  0.62474  Biso   1.000  C 
  C9       1.0000 0.87480  0.75204  0.27287  Biso   1.000  C 
  C10      1.0000 0.16968  0.75111  0.65776  Biso   1.000  C 
  C11      1.0000 0.37486  0.25252  0.27284  Biso   1.000  C 
  C12      1.0000 0.36485  0.85857  0.47763  Biso   1.000  C 
  C13      1.0000 0.77610  0.74902  0.13302  Biso   1.000  C 
  C14      1.0000 0.83561  0.72970  0.12501  Biso   1.000  C 
  C15      1.0000 0.33569  0.23049  0.12484  Biso   1.000  C 
  C16      1.0000 0.11019  0.73108  0.66575  Biso   1.000  C 
  C17      1.0000 0.67003  0.75300  0.15606  Biso   1.000  C 
  C18      1.0000 0.66976  0.25023  0.65753  Biso   1.000  C 
  C19      1.0000 0.77581  0.25404  0.63345  Biso   1.000  C 
  C20      1.0000 0.83535  0.27192  0.62452  Biso   1.000  C 
  C21      1.0000 0.11057  0.27206  0.16390  Biso   1.000  C 
  C22      1.0000 0.07139  0.24887  0.01613  Biso   1.000  C 
  C23      1.0000 0.61025  0.23049  0.66570  Biso   1.000  C 
  C24      1.0000 0.58079  0.14334  0.81245  Biso   1.000  C 
  C25      1.0000 0.08071  0.64396  0.81249  Biso   1.000  C 
  C26      1.0000 0.27618  0.25009  0.13268  Biso   1.000  C 
  C27      1.0000 0.61049  0.77133  0.16431  Biso   1.000  C 
  C28      1.0000 0.07095  0.75296  0.51813  Biso   1.000  C 
  C29      1.0000 0.57132  0.74839  0.01647  Biso   1.000  C 
  C30      1.0000 0.86519  0.64307  0.97755  Biso   1.000  C 
  C31      1.0000 0.58080  0.85749  0.31177  Biso   1.000  C 
  C32      1.0000 0.57099  0.25269  0.51821  Biso   1.000  C 
  Co1      1.0000 0.97296  0.53447  0.39479  Biso   1.000  Co
  Co2      1.0000 0.97306  0.46514  0.89447  Biso   1.000  Co
  Co3      1.0000 0.47293  0.03458  0.39492  Biso   1.000  Co
  Co4      1.0000 0.47307  0.96516  0.89470  Biso   1.000  Co
  H1       1.0000 0.35046  0.10287  0.83701  Biso   1.000  H 
  H2       1.0000 0.34995  0.89986  0.33774  Biso   1.000  H 
  H3       1.0000 0.85039  0.60224  0.83709  Biso   1.000  H 
  H4       1.0000 0.85000  0.39940  0.33752  Biso   1.000  H 
  H5       1.0000 0.59567  0.10213  0.95238  Biso   1.000  H 
  H6       1.0000 0.07709  0.19209  0.87396  Biso   1.000  H 
  H7       1.0000 0.36909  0.69202  0.91350  Biso   1.000  H 
  H8       1.0000 0.09563  0.39932  0.45178  Biso   1.000  H 
  H9       1.0000 0.86918  0.80907  0.41498  Biso   1.000  H 
  H10      1.0000 0.09557  0.60297  0.95251  Biso   1.000  H 
  H11      1.0000 0.57702  0.69161  0.87428  Biso   1.000  H 
  H12      1.0000 0.86914  0.19165  0.91331  Biso   1.000  H 
  H13      1.0000 0.36923  0.30948  0.41499  Biso   1.000  H 
  H14      1.0000 0.57650  0.30977  0.37651  Biso   1.000  H 
  H15      1.0000 0.07647  0.80994  0.37639  Biso   1.000  H 
  H16      1.0000 0.59557  0.89881  0.45211  Biso   1.000  H 
  N1       1.0000 0.75392  0.82371  0.29290  Biso   1.000  N 
  N2       1.0000 0.52846  0.88982  0.25363  Biso   1.000  N 
  N3       1.0000 0.52225  0.17734  0.57096  Biso   1.000  N 
  N4       1.0000 0.24587  0.82796  0.48634  Biso   1.000  N 
  N5       1.0000 0.92354  0.32278  0.71842  Biso   1.000  N 
  N6       1.0000 0.52849  0.10992  0.75419  Biso   1.000  N 
  N7       1.0000 0.24643  0.17825  0.98377  Biso   1.000  N 
  N8       1.0000 0.19956  0.67979  0.80603  Biso   1.000  N 
  N9       1.0000 0.75376  0.18061  0.79352  Biso   1.000  N 
  N10      1.0000 0.02844  0.61020  0.75409  Biso   1.000  N 
  N11      1.0000 0.25367  0.68169  0.79394  Biso   1.000  N 
  N12      1.0000 0.69181  0.32501  0.49811  Biso   1.000  N 
  N13      1.0000 0.02850  0.38997  0.25340  Biso   1.000  N 
  N14      1.0000 0.02223  0.67741  0.57079  Biso   1.000  N 
  N15      1.0000 0.25399  0.32490  0.29245  Biso   1.000  N 
  N16      1.0000 0.74633  0.67705  0.98423  Biso   1.000  N 
  N17      1.0000 0.19230  0.18028  0.99532  Biso   1.000  N 
  N18      1.0000 0.92360  0.67708  0.21968  Biso   1.000  N 
  N19      1.0000 0.42350  0.82304  0.71859  Biso   1.000  N 
  N20      1.0000 0.41727  0.89053  0.53535  Biso   1.000  N 
  N21      1.0000 0.19175  0.82605  0.49843  Biso   1.000  N 
  N22      1.0000 0.41752  0.11017  0.03580  Biso   1.000  N 
  N23      1.0000 0.42362  0.17725  0.21973  Biso   1.000  N 
  N24      1.0000 0.69964  0.17864  0.80566  Biso   1.000  N 
  N25      1.0000 0.69979  0.82576  0.30450  Biso   1.000  N 
  N26      1.0000 0.91732  0.39023  0.53517  Biso   1.000  N 
  N27      1.0000 0.91749  0.60993  0.03576  Biso   1.000  N 
  N28      1.0000 0.69220  0.67914  0.99583  Biso   1.000  N 
  N29      1.0000 0.19986  0.32695  0.30398  Biso   1.000  N 
  N30      1.0000 0.02246  0.32272  0.06948  Biso   1.000  N 
  N31      1.0000 0.52242  0.82258  0.06970  Biso   1.000  N 
  N32      1.0000 0.74593  0.32699  0.48598  Biso   1.000  N 
