data_image0
_cell_length_a       22.6427
_cell_length_b       12.5062
_cell_length_c       6.71009
_cell_angle_alpha    90.1311
_cell_angle_beta     84.2626
_cell_angle_gamma    90.0083

_symmetry_space_group_name_H-M    "P 1"
_symmetry_int_tables_number       1

loop_
  _symmetry_equiv_pos_as_xyz
  'x, y, z'

loop_
  _atom_site_label
  _atom_site_occupancy
  _atom_site_fract_x
  _atom_site_fract_y
  _atom_site_fract_z
  _atom_site_thermal_displace_type
  _atom_site_B_iso_or_equiv
  _atom_site_type_symbol
  C1       1.0000 0.37428  0.83181  0.78020  Biso   1.000  C 
  C2       1.0000 0.58624  0.91197  0.29549  Biso   1.000  C 
  C3       1.0000 0.08601  0.59024  0.79626  Biso   1.000  C 
  C4       1.0000 0.57173  0.83140  0.00833  Biso   1.000  C 
  C5       1.0000 0.11242  0.66186  0.65276  Biso   1.000  C 
  C6       1.0000 0.07132  0.67055  0.50969  Biso   1.000  C 
  C7       1.0000 0.61286  0.84059  0.15129  Biso   1.000  C 
  C8       1.0000 0.57143  0.17032  0.51002  Biso   1.000  C 
  C9       1.0000 0.77479  0.29348  0.64223  Biso   1.000  C 
  C10      1.0000 0.58605  0.08997  0.79663  Biso   1.000  C 
  C11      1.0000 0.61252  0.16155  0.65316  Biso   1.000  C 
  C12      1.0000 0.07187  0.33167  0.00824  Biso   1.000  C 
  C13      1.0000 0.11295  0.34093  0.15136  Biso   1.000  C 
  C14      1.0000 0.27540  0.20961  0.14004  Biso   1.000  C 
  C15      1.0000 0.67040  0.21070  0.65067  Biso   1.000  C 
  C16      1.0000 0.85993  0.58903  0.99286  Biso   1.000  C 
  C17      1.0000 0.77520  0.70886  0.14009  Biso   1.000  C 
  C18      1.0000 0.33337  0.16079  0.13726  Biso   1.000  C 
  C19      1.0000 0.08624  0.41221  0.29556  Biso   1.000  C 
  C20      1.0000 0.27465  0.79391  0.64229  Biso   1.000  C 
  C21      1.0000 0.85974  0.41210  0.49356  Biso   1.000  C 
  C22      1.0000 0.83311  0.34109  0.63775  Biso   1.000  C 
  C23      1.0000 0.36000  0.08941  0.99312  Biso   1.000  C 
  C24      1.0000 0.17110  0.29274  0.14774  Biso   1.000  C 
  C25      1.0000 0.87442  0.33159  0.77998  Biso   1.000  C 
  C26      1.0000 0.87427  0.66949  0.28032  Biso   1.000  C 
  C27      1.0000 0.17027  0.71114  0.65042  Biso   1.000  C 
  C28      1.0000 0.37442  0.16983  0.28053  Biso   1.000  C 
  C29      1.0000 0.67093  0.79207  0.14786  Biso   1.000  C 
  C30      1.0000 0.35971  0.91231  0.49366  Biso   1.000  C 
  C31      1.0000 0.33300  0.84139  0.63788  Biso   1.000  C 
  C32      1.0000 0.83323  0.66030  0.13705  Biso   1.000  C 
  Co1      1.0000 0.47311  0.97086  0.89427  Biso   1.000  Co
  Co2      1.0000 0.47302  0.03021  0.39459  Biso   1.000  Co
  Co3      1.0000 0.97298  0.53027  0.39444  Biso   1.000  Co
  Co4      1.0000 0.97318  0.47085  0.89400  Biso   1.000  Co
  H1       1.0000 0.07462  0.71618  0.37167  Biso   1.000  H 
  H2       1.0000 0.57478  0.21596  0.37199  Biso   1.000  H 
  H3       1.0000 0.37095  0.21537  0.41906  Biso   1.000  H 
  H4       1.0000 0.87105  0.28610  0.91819  Biso   1.000  H 
  H5       1.0000 0.87076  0.71502  0.41889  Biso   1.000  H 
  H6       1.0000 0.57514  0.78580  0.86988  Biso   1.000  H 
  H7       1.0000 0.60288  0.94093  0.43182  Biso   1.000  H 
  H8       1.0000 0.10271  0.56152  0.93242  Biso   1.000  H 
  H9       1.0000 0.37087  0.78637  0.91847  Biso   1.000  H 
  H10      1.0000 0.34300  0.94137  0.35773  Biso   1.000  H 
  H11      1.0000 0.34342  0.06053  0.85664  Biso   1.000  H 
  H12      1.0000 0.10284  0.44123  0.43191  Biso   1.000  H 
  H13      1.0000 0.07534  0.28613  0.86970  Biso   1.000  H 
  H14      1.0000 0.60272  0.06120  0.93283  Biso   1.000  H 
  H15      1.0000 0.84297  0.44118  0.35775  Biso   1.000  H 
  H16      1.0000 0.84336  0.56006  0.85642  Biso   1.000  H 
  N1       1.0000 0.92188  0.60779  0.22512  Biso   1.000  N 
  N2       1.0000 0.42202  0.89300  0.72454  Biso   1.000  N 
  N3       1.0000 0.41290  0.94271  0.54726  Biso   1.000  N 
  N4       1.0000 0.42196  0.10795  0.22541  Biso   1.000  N 
  N5       1.0000 0.41294  0.05829  0.04758  Biso   1.000  N 
  N6       1.0000 0.18887  0.22606  0.99336  Biso   1.000  N 
  N7       1.0000 0.70375  0.18503  0.80103  Biso   1.000  N 
  N8       1.0000 0.70436  0.81845  0.29784  Biso   1.000  N 
  N9       1.0000 0.91292  0.44265  0.54712  Biso   1.000  N 
  N10      1.0000 0.91291  0.55809  0.04730  Biso   1.000  N 
  N11      1.0000 0.68860  0.72515  0.99377  Biso   1.000  N 
  N12      1.0000 0.20457  0.31934  0.29746  Biso   1.000  N 
  N13      1.0000 0.52414  0.89310  0.06369  Biso   1.000  N 
  N14      1.0000 0.18767  0.77875  0.49773  Biso   1.000  N 
  N15      1.0000 0.03323  0.44301  0.24130  Biso   1.000  N 
  N16      1.0000 0.02422  0.39326  0.06355  Biso   1.000  N 
  N17      1.0000 0.24097  0.82096  0.49361  Biso   1.000  N 
  N18      1.0000 0.68778  0.27826  0.49786  Biso   1.000  N 
  N19      1.0000 0.25686  0.72771  0.79683  Biso   1.000  N 
  N20      1.0000 0.03314  0.55869  0.74163  Biso   1.000  N 
  N21      1.0000 0.24212  0.18369  0.98944  Biso   1.000  N 
  N22      1.0000 0.20356  0.68552  0.80098  Biso   1.000  N 
  N23      1.0000 0.02395  0.60828  0.56432  Biso   1.000  N 
  N24      1.0000 0.75705  0.22724  0.79673  Biso   1.000  N 
  N25      1.0000 0.92211  0.39292  0.72432  Biso   1.000  N 
  N26      1.0000 0.53317  0.05852  0.74192  Biso   1.000  N 
  N27      1.0000 0.52402  0.10814  0.56459  Biso   1.000  N 
  N28      1.0000 0.53322  0.94288  0.24135  Biso   1.000  N 
  N29      1.0000 0.75760  0.77602  0.29390  Biso   1.000  N 
  N30      1.0000 0.25782  0.27695  0.29358  Biso   1.000  N 
  N31      1.0000 0.74184  0.68272  0.98982  Biso   1.000  N 
  N32      1.0000 0.74109  0.32047  0.49357  Biso   1.000  N 
