data_image0
_cell_length_a       24.2789
_cell_length_b       6.50483
_cell_length_c       7.0271
_cell_angle_alpha    90.2191
_cell_angle_beta     91.1806
_cell_angle_gamma    90.0086

_symmetry_space_group_name_H-M    "P 1"
_symmetry_int_tables_number       1

loop_
  _symmetry_equiv_pos_as_xyz
  'x, y, z'

loop_
  _atom_site_label
  _atom_site_occupancy
  _atom_site_fract_x
  _atom_site_fract_y
  _atom_site_fract_z
  _atom_site_thermal_displace_type
  _atom_site_B_iso_or_equiv
  _atom_site_type_symbol
  C1       1.0000 0.37430  0.73363  0.77263  Biso   1.000  C 
  C2       1.0000 0.57126  0.26791  0.51744  Biso   1.000  C 
  C3       1.0000 0.58075  0.84583  0.31334  Biso   1.000  C 
  C4       1.0000 0.86531  0.65495  0.97610  Biso   1.000  C 
  C5       1.0000 0.57155  0.73330  0.01579  Biso   1.000  C 
  C6       1.0000 0.07121  0.76823  0.51734  Biso   1.000  C 
  C7       1.0000 0.61066  0.75775  0.16463  Biso   1.000  C 
  C8       1.0000 0.27600  0.25807  0.13246  Biso   1.000  C 
  C9       1.0000 0.08064  0.65552  0.81397  Biso   1.000  C 
  C10      1.0000 0.58073  0.15488  0.81395  Biso   1.000  C 
  C11      1.0000 0.61046  0.24401  0.66592  Biso   1.000  C 
  C12      1.0000 0.11073  0.25842  0.16429  Biso   1.000  C 
  C13      1.0000 0.83518  0.25791  0.62404  Biso   1.000  C 
  C14      1.0000 0.77565  0.24601  0.63305  Biso   1.000  C 
  C15      1.0000 0.66996  0.25787  0.65750  Biso   1.000  C 
  C16      1.0000 0.67019  0.74539  0.15609  Biso   1.000  C 
  C17      1.0000 0.07161  0.23380  0.01551  Biso   1.000  C 
  C18      1.0000 0.33552  0.24421  0.12460  Biso   1.000  C 
  C19      1.0000 0.87438  0.23320  0.77240  Biso   1.000  C 
  C20      1.0000 0.11037  0.74470  0.66597  Biso   1.000  C 
  C21      1.0000 0.27556  0.74691  0.63335  Biso   1.000  C 
  C22      1.0000 0.86504  0.34607  0.47583  Biso   1.000  C 
  C23      1.0000 0.36539  0.15549  0.97610  Biso   1.000  C 
  C24      1.0000 0.17027  0.24643  0.15569  Biso   1.000  C 
  C25      1.0000 0.33510  0.75855  0.62432  Biso   1.000  C 
  C26      1.0000 0.08080  0.34629  0.31306  Biso   1.000  C 
  C27      1.0000 0.16988  0.75882  0.65773  Biso   1.000  C 
  C28      1.0000 0.37459  0.26768  0.27374  Biso   1.000  C 
  C29      1.0000 0.36497  0.84660  0.47610  Biso   1.000  C 
  C30      1.0000 0.77592  0.75709  0.13270  Biso   1.000  C 
  C31      1.0000 0.83544  0.74360  0.12463  Biso   1.000  C 
  C32      1.0000 0.87453  0.76724  0.27370  Biso   1.000  C 
  Co1      1.0000 0.47301  0.96443  0.89474  Biso   1.000  Co
  Co2      1.0000 0.47292  0.03472  0.39515  Biso   1.000  Co
  Co3      1.0000 0.97292  0.53471  0.39491  Biso   1.000  Co
  Co4      1.0000 0.97299  0.46447  0.89451  Biso   1.000  Co
  H1       1.0000 0.09542  0.61320  0.95501  Biso   1.000  H 
  H2       1.0000 0.59543  0.88839  0.45473  Biso   1.000  H 
  H3       1.0000 0.07690  0.82672  0.37461  Biso   1.000  H 
  H4       1.0000 0.57694  0.32650  0.37474  Biso   1.000  H 
  H5       1.0000 0.36878  0.32603  0.41686  Biso   1.000  H 
  H6       1.0000 0.86863  0.17489  0.91516  Biso   1.000  H 
  H7       1.0000 0.57734  0.67510  0.87262  Biso   1.000  H 
  H8       1.0000 0.86874  0.82559  0.41683  Biso   1.000  H 
  H9       1.0000 0.07742  0.17566  0.87232  Biso   1.000  H 
  H10      1.0000 0.36855  0.67530  0.91538  Biso   1.000  H 
  H11      1.0000 0.09548  0.38887  0.45445  Biso   1.000  H 
  H12      1.0000 0.59552  0.11238  0.95492  Biso   1.000  H 
  H13      1.0000 0.85026  0.38887  0.33492  Biso   1.000  H 
  H14      1.0000 0.85062  0.61276  0.83462  Biso   1.000  H 
  H15      1.0000 0.35020  0.88949  0.33520  Biso   1.000  H 
  H16      1.0000 0.35072  0.11341  0.83457  Biso   1.000  H 
  N1       1.0000 0.92349  0.68989  0.22017  Biso   1.000  N 
  N2       1.0000 0.42336  0.80979  0.71912  Biso   1.000  N 
  N3       1.0000 0.41741  0.87947  0.53447  Biso   1.000  N 
  N4       1.0000 0.19234  0.83261  0.49669  Biso   1.000  N 
  N5       1.0000 0.41767  0.12091  0.03500  Biso   1.000  N 
  N6       1.0000 0.42354  0.19010  0.22031  Biso   1.000  N 
  N7       1.0000 0.91746  0.37920  0.53425  Biso   1.000  N 
  N8       1.0000 0.69941  0.82463  0.30599  Biso   1.000  N 
  N9       1.0000 0.19282  0.17445  0.99361  Biso   1.000  N 
  N10      1.0000 0.91761  0.62062  0.03488  Biso   1.000  N 
  N11      1.0000 0.69274  0.67310  0.99410  Biso   1.000  N 
  N12      1.0000 0.19947  0.32590  0.30553  Biso   1.000  N 
  N13      1.0000 0.02254  0.30997  0.06933  Biso   1.000  N 
  N14      1.0000 0.69930  0.17986  0.80709  Biso   1.000  N 
  N15      1.0000 0.74668  0.67893  0.98238  Biso   1.000  N 
  N16      1.0000 0.02840  0.37934  0.25460  Biso   1.000  N 
  N17      1.0000 0.02231  0.69041  0.57056  Biso   1.000  N 
  N18      1.0000 0.69241  0.33154  0.49639  Biso   1.000  N 
  N19      1.0000 0.25312  0.67512  0.79524  Biso   1.000  N 
  N20      1.0000 0.02832  0.62087  0.75521  Biso   1.000  N 
  N21      1.0000 0.75322  0.17396  0.79485  Biso   1.000  N 
  N22      1.0000 0.19920  0.68106  0.80745  Biso   1.000  N 
  N23      1.0000 0.24677  0.18026  0.98197  Biso   1.000  N 
  N24      1.0000 0.52838  0.12055  0.75533  Biso   1.000  N 
  N25      1.0000 0.92341  0.30956  0.71892  Biso   1.000  N 
  N26      1.0000 0.24627  0.82667  0.48448  Biso   1.000  N 
  N27      1.0000 0.52235  0.19029  0.57074  Biso   1.000  N 
  N28      1.0000 0.52837  0.87915  0.25481  Biso   1.000  N 
  N29      1.0000 0.75335  0.83048  0.29426  Biso   1.000  N 
  N30      1.0000 0.52251  0.80977  0.06954  Biso   1.000  N 
  N31      1.0000 0.25341  0.33169  0.29390  Biso   1.000  N 
  N32      1.0000 0.74634  0.32560  0.48414  Biso   1.000  N 
