data_image0
_cell_length_a       23.1168
_cell_length_b       11.4652
_cell_length_c       6.69838
_cell_angle_alpha    90.1003
_cell_angle_beta     85.4207
_cell_angle_gamma    90.0149

_symmetry_space_group_name_H-M    "P 1"
_symmetry_int_tables_number       1

loop_
  _symmetry_equiv_pos_as_xyz
  'x, y, z'

loop_
  _atom_site_label
  _atom_site_occupancy
  _atom_site_fract_x
  _atom_site_fract_y
  _atom_site_fract_z
  _atom_site_thermal_displace_type
  _atom_site_B_iso_or_equiv
  _atom_site_type_symbol
  C1       1.0000 0.37441  0.82165  0.77883  Biso   1.000  C 
  C2       1.0000 0.83405  0.66699  0.13479  Biso   1.000  C 
  C3       1.0000 0.33364  0.83498  0.63552  Biso   1.000  C 
  C4       1.0000 0.36097  0.90881  0.48955  Biso   1.000  C 
  C5       1.0000 0.67057  0.78823  0.14970  Biso   1.000  C 
  C6       1.0000 0.37483  0.18016  0.27879  Biso   1.000  C 
  C7       1.0000 0.16986  0.71509  0.65216  Biso   1.000  C 
  C8       1.0000 0.87469  0.67979  0.27880  Biso   1.000  C 
  C9       1.0000 0.87454  0.32137  0.77868  Biso   1.000  C 
  C10      1.0000 0.17078  0.28900  0.14917  Biso   1.000  C 
  C11      1.0000 0.36135  0.09301  0.98898  Biso   1.000  C 
  C12      1.0000 0.86102  0.40860  0.48951  Biso   1.000  C 
  C13      1.0000 0.27496  0.79067  0.64125  Biso   1.000  C 
  C14      1.0000 0.08494  0.40843  0.29927  Biso   1.000  C 
  C15      1.0000 0.33421  0.16751  0.13469  Biso   1.000  C 
  C16      1.0000 0.77563  0.71253  0.13923  Biso   1.000  C 
  C17      1.0000 0.83375  0.33468  0.63545  Biso   1.000  C 
  C18      1.0000 0.66997  0.21475  0.65221  Biso   1.000  C 
  C19      1.0000 0.58483  0.90807  0.29953  Biso   1.000  C 
  C20      1.0000 0.86123  0.59259  0.98901  Biso   1.000  C 
  C21      1.0000 0.57160  0.82091  0.00956  Biso   1.000  C 
  C22      1.0000 0.11164  0.66853  0.65552  Biso   1.000  C 
  C23      1.0000 0.07114  0.68071  0.51100  Biso   1.000  C 
  C24      1.0000 0.61213  0.83373  0.15393  Biso   1.000  C 
  C25      1.0000 0.57124  0.18053  0.51111  Biso   1.000  C 
  C26      1.0000 0.08457  0.59370  0.80041  Biso   1.000  C 
  C27      1.0000 0.58465  0.09341  0.80047  Biso   1.000  C 
  C28      1.0000 0.61175  0.16821  0.65559  Biso   1.000  C 
  C29      1.0000 0.07177  0.32128  0.00923  Biso   1.000  C 
  C30      1.0000 0.11230  0.33424  0.15355  Biso   1.000  C 
  C31      1.0000 0.27584  0.21328  0.13886  Biso   1.000  C 
  C32      1.0000 0.77508  0.29030  0.64121  Biso   1.000  C 
  Co1      1.0000 0.97309  0.46835  0.89378  Biso   1.000  Co
  Co2      1.0000 0.97304  0.53209  0.39385  Biso   1.000  Co
  Co3      1.0000 0.47308  0.96836  0.89383  Biso   1.000  Co
  Co4      1.0000 0.47307  0.03209  0.39397  Biso   1.000  Co
  H1       1.0000 0.34459  0.94115  0.35273  Biso   1.000  H 
  H2       1.0000 0.84491  0.56046  0.85179  Biso   1.000  H 
  H3       1.0000 0.84462  0.44094  0.35275  Biso   1.000  H 
  H4       1.0000 0.60087  0.06147  0.93778  Biso   1.000  H 
  H5       1.0000 0.07581  0.27311  0.86924  Biso   1.000  H 
  H6       1.0000 0.10112  0.44065  0.43667  Biso   1.000  H 
  H7       1.0000 0.34502  0.06095  0.85175  Biso   1.000  H 
  H8       1.0000 0.37049  0.77364  0.91874  Biso   1.000  H 
  H9       1.0000 0.57560  0.77269  0.86962  Biso   1.000  H 
  H10      1.0000 0.60102  0.94025  0.43694  Biso   1.000  H 
  H11      1.0000 0.10082  0.56183  0.93775  Biso   1.000  H 
  H12      1.0000 0.87081  0.72801  0.41879  Biso   1.000  H 
  H13      1.0000 0.87065  0.27333  0.91856  Biso   1.000  H 
  H14      1.0000 0.37098  0.22841  0.41876  Biso   1.000  H 
  H15      1.0000 0.57513  0.22894  0.37163  Biso   1.000  H 
  H16      1.0000 0.07500  0.72910  0.37150  Biso   1.000  H 
  N1       1.0000 0.68873  0.28442  0.49663  Biso   1.000  N 
  N2       1.0000 0.25584  0.72284  0.79886  Biso   1.000  N 
  N3       1.0000 0.03198  0.56327  0.74485  Biso   1.000  N 
  N4       1.0000 0.24350  0.18175  0.98693  Biso   1.000  N 
  N5       1.0000 0.20215  0.68432  0.80443  Biso   1.000  N 
  N6       1.0000 0.02352  0.61703  0.56585  Biso   1.000  N 
  N7       1.0000 0.53203  0.06311  0.74492  Biso   1.000  N 
  N8       1.0000 0.92250  0.38364  0.72221  Biso   1.000  N 
  N9       1.0000 0.24230  0.82331  0.49105  Biso   1.000  N 
  N10      1.0000 0.52360  0.11693  0.56596  Biso   1.000  N 
  N11      1.0000 0.53209  0.93764  0.24451  Biso   1.000  N 
  N12      1.0000 0.75663  0.78141  0.29598  Biso   1.000  N 
  N13      1.0000 0.25686  0.28232  0.29541  Biso   1.000  N 
  N14      1.0000 0.75597  0.22246  0.79880  Biso   1.000  N 
  N15      1.0000 0.02386  0.38394  0.06495  Biso   1.000  N 
  N16      1.0000 0.52375  0.88380  0.06514  Biso   1.000  N 
  N17      1.0000 0.18862  0.78477  0.49661  Biso   1.000  N 
  N18      1.0000 0.20319  0.32092  0.30068  Biso   1.000  N 
  N19      1.0000 0.68958  0.71940  0.99290  Biso   1.000  N 
  N20      1.0000 0.91401  0.56291  0.04357  Biso   1.000  N 
  N21      1.0000 0.91400  0.43755  0.54333  Biso   1.000  N 
  N22      1.0000 0.70297  0.82002  0.30130  Biso   1.000  N 
  N23      1.0000 0.70229  0.18392  0.80441  Biso   1.000  N 
  N24      1.0000 0.18985  0.22037  0.99217  Biso   1.000  N 
  N25      1.0000 0.41409  0.06315  0.04364  Biso   1.000  N 
  N26      1.0000 0.42257  0.11701  0.22289  Biso   1.000  N 
  N27      1.0000 0.41395  0.93771  0.54341  Biso   1.000  N 
  N28      1.0000 0.42241  0.88383  0.72235  Biso   1.000  N 
  N29      1.0000 0.92247  0.61681  0.22279  Biso   1.000  N 
  N30      1.0000 0.74323  0.68080  0.98758  Biso   1.000  N 
  N31      1.0000 0.03215  0.43778  0.24436  Biso   1.000  N 
  N32      1.0000 0.74241  0.32296  0.49104  Biso   1.000  N 
