data_image0
_cell_length_a       24.2788
_cell_length_b       5.60761
_cell_length_c       6.78509
_cell_angle_alpha    89.9524
_cell_angle_beta     93.469
_cell_angle_gamma    90.0088

_symmetry_space_group_name_H-M    "P 1"
_symmetry_int_tables_number       1

loop_
  _symmetry_equiv_pos_as_xyz
  'x, y, z'

loop_
  _atom_site_label
  _atom_site_occupancy
  _atom_site_fract_x
  _atom_site_fract_y
  _atom_site_fract_z
  _atom_site_thermal_displace_type
  _atom_site_B_iso_or_equiv
  _atom_site_type_symbol
  C1       1.0000 0.37481  0.69530  0.76859  Biso   1.000  C 
  C2       1.0000 0.87521  0.80631  0.26827  Biso   1.000  C 
  C3       1.0000 0.83450  0.76810  0.11553  Biso   1.000  C 
  C4       1.0000 0.77530  0.77010  0.12760  Biso   1.000  C 
  C5       1.0000 0.36314  0.83188  0.46163  Biso   1.000  C 
  C6       1.0000 0.37529  0.30707  0.26858  Biso   1.000  C 
  C7       1.0000 0.17052  0.77078  0.66194  Biso   1.000  C 
  C8       1.0000 0.08275  0.33166  0.32797  Biso   1.000  C 
  C9       1.0000 0.33421  0.73434  0.61556  Biso   1.000  C 
  C10      1.0000 0.17086  0.23422  0.16175  Biso   1.000  C 
  C11      1.0000 0.36326  0.16993  0.96205  Biso   1.000  C 
  C12      1.0000 0.27503  0.73443  0.62800  Biso   1.000  C 
  C13      1.0000 0.11132  0.76834  0.67380  Biso   1.000  C 
  C14      1.0000 0.87486  0.19458  0.76848  Biso   1.000  C 
  C15      1.0000 0.33457  0.26896  0.11585  Biso   1.000  C 
  C16      1.0000 0.07107  0.19505  0.02120  Biso   1.000  C 
  C17      1.0000 0.86315  0.33121  0.46155  Biso   1.000  C 
  C18      1.0000 0.67057  0.27004  0.66211  Biso   1.000  C 
  C19      1.0000 0.57073  0.30614  0.52106  Biso   1.000  C 
  C20      1.0000 0.67080  0.73334  0.16184  Biso   1.000  C 
  C21      1.0000 0.86323  0.66929  0.96172  Biso   1.000  C 
  C22      1.0000 0.57098  0.69468  0.02138  Biso   1.000  C 
  C23      1.0000 0.07067  0.80631  0.52077  Biso   1.000  C 
  C24      1.0000 0.61160  0.73358  0.17431  Biso   1.000  C 
  C25      1.0000 0.27537  0.27105  0.12779  Biso   1.000  C 
  C26      1.0000 0.58273  0.83146  0.32809  Biso   1.000  C 
  C27      1.0000 0.58258  0.16930  0.82793  Biso   1.000  C 
  C28      1.0000 0.61137  0.26793  0.67407  Biso   1.000  C 
  C29      1.0000 0.11167  0.23414  0.17414  Biso   1.000  C 
  C30      1.0000 0.83425  0.23354  0.61552  Biso   1.000  C 
  C31      1.0000 0.77506  0.23351  0.62799  Biso   1.000  C 
  C32      1.0000 0.08254  0.66967  0.82769  Biso   1.000  C 
  Co1      1.0000 0.97292  0.45927  0.89472  Biso   1.000  Co
  Co2      1.0000 0.97293  0.53939  0.39466  Biso   1.000  Co
  Co3      1.0000 0.47290  0.95957  0.89502  Biso   1.000  Co
  Co4      1.0000 0.47295  0.03966  0.39479  Biso   1.000  Co
  H1       1.0000 0.37000  0.63124  0.91730  Biso   1.000  H 
  H2       1.0000 0.34721  0.11905  0.81581  Biso   1.000  H 
  H3       1.0000 0.34727  0.88279  0.31512  Biso   1.000  H 
  H4       1.0000 0.84721  0.61840  0.81545  Biso   1.000  H 
  H5       1.0000 0.84727  0.38215  0.31504  Biso   1.000  H 
  H6       1.0000 0.59854  0.11866  0.97440  Biso   1.000  H 
  H7       1.0000 0.09863  0.38253  0.47442  Biso   1.000  H 
  H8       1.0000 0.07586  0.13084  0.87262  Biso   1.000  H 
  H9       1.0000 0.87010  0.13047  0.91720  Biso   1.000  H 
  H10      1.0000 0.57574  0.63058  0.87275  Biso   1.000  H 
  H11      1.0000 0.87060  0.87082  0.41687  Biso   1.000  H 
  H12      1.0000 0.37071  0.37171  0.41715  Biso   1.000  H 
  H13      1.0000 0.57542  0.37067  0.37241  Biso   1.000  H 
  H14      1.0000 0.07533  0.87079  0.37210  Biso   1.000  H 
  H15      1.0000 0.59863  0.88259  0.47446  Biso   1.000  H 
  H16      1.0000 0.09847  0.61917  0.97423  Biso   1.000  H 
  N1       1.0000 0.69117  0.35446  0.49483  Biso   1.000  N 
  N2       1.0000 0.25448  0.65215  0.79607  Biso   1.000  N 
  N3       1.0000 0.02910  0.64206  0.76740  Biso   1.000  N 
  N4       1.0000 0.75452  0.15089  0.79594  Biso   1.000  N 
  N5       1.0000 0.20111  0.66954  0.81307  Biso   1.000  N 
  N6       1.0000 0.24481  0.16942  0.97688  Biso   1.000  N 
  N7       1.0000 0.24452  0.83769  0.47766  Biso   1.000  N 
  N8       1.0000 0.92405  0.27288  0.71219  Biso   1.000  N 
  N9       1.0000 0.02159  0.72654  0.57699  Biso   1.000  N 
  N10      1.0000 0.52164  0.22652  0.57727  Biso   1.000  N 
  N11      1.0000 0.52924  0.85772  0.26786  Biso   1.000  N 
  N12      1.0000 0.75471  0.85439  0.29477  Biso   1.000  N 
  N13      1.0000 0.52180  0.77319  0.07753  Biso   1.000  N 
  N14      1.0000 0.52914  0.14192  0.76766  Biso   1.000  N 
  N15      1.0000 0.02925  0.35763  0.26772  Biso   1.000  N 
  N16      1.0000 0.02186  0.27319  0.07735  Biso   1.000  N 
  N17      1.0000 0.70114  0.16833  0.81301  Biso   1.000  N 
  N18      1.0000 0.20136  0.33751  0.31195  Biso   1.000  N 
  N19      1.0000 0.69135  0.65056  0.99404  Biso   1.000  N 
  N20      1.0000 0.91669  0.64190  0.02178  Biso   1.000  N 
  N21      1.0000 0.19144  0.15179  0.99386  Biso   1.000  N 
  N22      1.0000 0.70133  0.83668  0.31194  Biso   1.000  N 
  N23      1.0000 0.91664  0.35732  0.52171  Biso   1.000  N 
  N24      1.0000 0.42432  0.22712  0.21228  Biso   1.000  N 
  N25      1.0000 0.41672  0.14233  0.02210  Biso   1.000  N 
  N26      1.0000 0.19113  0.85520  0.49471  Biso   1.000  N 
  N27      1.0000 0.41663  0.85781  0.52185  Biso   1.000  N 
  N28      1.0000 0.42402  0.77341  0.71236  Biso   1.000  N 
  N29      1.0000 0.92427  0.72663  0.21199  Biso   1.000  N 
  N30      1.0000 0.25475  0.35528  0.29493  Biso   1.000  N 
  N31      1.0000 0.74472  0.66821  0.97689  Biso   1.000  N 
  N32      1.0000 0.74454  0.33680  0.47768  Biso   1.000  N 
