data_image0
_cell_length_a       18.6035
_cell_length_b       18.1273
_cell_length_c       7.1885
_cell_angle_alpha    90.0518
_cell_angle_beta     85.3415
_cell_angle_gamma    89.9985

_symmetry_space_group_name_H-M    "P 1"
_symmetry_int_tables_number       1

loop_
  _symmetry_equiv_pos_as_xyz
  'x, y, z'

loop_
  _atom_site_label
  _atom_site_occupancy
  _atom_site_fract_x
  _atom_site_fract_y
  _atom_site_fract_z
  _atom_site_thermal_displace_type
  _atom_site_B_iso_or_equiv
  _atom_site_type_symbol
  C1       1.0000 0.37067  0.87578  0.79122  Biso   1.000  C 
  C2       1.0000 0.82876  0.64569  0.14395  Biso   1.000  C 
  C3       1.0000 0.32887  0.85651  0.64396  Biso   1.000  C 
  C4       1.0000 0.35365  0.90370  0.49731  Biso   1.000  C 
  C5       1.0000 0.67284  0.80050  0.14560  Biso   1.000  C 
  C6       1.0000 0.37036  0.12637  0.29142  Biso   1.000  C 
  C7       1.0000 0.17305  0.70162  0.64539  Biso   1.000  C 
  C8       1.0000 0.87034  0.62636  0.29149  Biso   1.000  C 
  C9       1.0000 0.87065  0.37579  0.79126  Biso   1.000  C 
  C10      1.0000 0.17288  0.30053  0.14557  Biso   1.000  C 
  C11      1.0000 0.35385  0.09869  0.99693  Biso   1.000  C 
  C12      1.0000 0.85365  0.40371  0.49734  Biso   1.000  C 
  C13      1.0000 0.27290  0.80082  0.64422  Biso   1.000  C 
  C14      1.0000 0.09206  0.40342  0.29267  Biso   1.000  C 
  C15      1.0000 0.32877  0.14570  0.14388  Biso   1.000  C 
  C16      1.0000 0.77271  0.70130  0.14434  Biso   1.000  C 
  C17      1.0000 0.82886  0.35652  0.64399  Biso   1.000  C 
  C18      1.0000 0.67305  0.20163  0.64534  Biso   1.000  C 
  C19      1.0000 0.59202  0.90341  0.29267  Biso   1.000  C 
  C20      1.0000 0.85384  0.59868  0.99699  Biso   1.000  C 
  C21      1.0000 0.57549  0.87577  0.99818  Biso   1.000  C 
  C22      1.0000 0.11708  0.64592  0.64567  Biso   1.000  C 
  C23      1.0000 0.07530  0.62665  0.49838  Biso   1.000  C 
  C24      1.0000 0.61697  0.85628  0.14580  Biso   1.000  C 
  C25      1.0000 0.57531  0.12665  0.49831  Biso   1.000  C 
  C26      1.0000 0.09233  0.59873  0.79229  Biso   1.000  C 
  C27      1.0000 0.59233  0.09874  0.79224  Biso   1.000  C 
  C28      1.0000 0.61709  0.14593  0.64560  Biso   1.000  C 
  C29      1.0000 0.07550  0.37578  0.99819  Biso   1.000  C 
  C30      1.0000 0.11700  0.35631  0.14579  Biso   1.000  C 
  C31      1.0000 0.27273  0.20132  0.14428  Biso   1.000  C 
  C32      1.0000 0.77289  0.30084  0.64422  Biso   1.000  C 
  Co1      1.0000 0.97314  0.49284  0.89465  Biso   1.000  Co
  Co2      1.0000 0.97293  0.50945  0.39493  Biso   1.000  Co
  Co3      1.0000 0.47314  0.99285  0.89458  Biso   1.000  Co
  Co4      1.0000 0.47293  0.00946  0.39490  Biso   1.000  Co
  H1       1.0000 0.33623  0.90743  0.35712  Biso   1.000  H 
  H2       1.0000 0.83664  0.59509  0.85655  Biso   1.000  H 
  H3       1.0000 0.83624  0.40745  0.35715  Biso   1.000  H 
  H4       1.0000 0.60974  0.09505  0.93243  Biso   1.000  H 
  H5       1.0000 0.07758  0.35338  0.85782  Biso   1.000  H 
  H6       1.0000 0.10924  0.40697  0.43314  Biso   1.000  H 
  H7       1.0000 0.33665  0.09508  0.85650  Biso   1.000  H 
  H8       1.0000 0.36879  0.85331  0.93140  Biso   1.000  H 
  H9       1.0000 0.57756  0.85336  0.85781  Biso   1.000  H 
  H10      1.0000 0.60921  0.90695  0.43314  Biso   1.000  H 
  H11      1.0000 0.10974  0.59503  0.93248  Biso   1.000  H 
  H12      1.0000 0.86818  0.64871  0.43193  Biso   1.000  H 
  H13      1.0000 0.86876  0.35332  0.93145  Biso   1.000  H 
  H14      1.0000 0.36819  0.14873  0.43186  Biso   1.000  H 
  H15      1.0000 0.57715  0.14916  0.35817  Biso   1.000  H 
  H16      1.0000 0.07715  0.64916  0.35824  Biso   1.000  H 
  N1       1.0000 0.68592  0.24318  0.48893  Biso   1.000  N 
  N2       1.0000 0.26005  0.75927  0.80060  Biso   1.000  N 
  N3       1.0000 0.03975  0.55490  0.73619  Biso   1.000  N 
  N4       1.0000 0.23670  0.20850  0.98830  Biso   1.000  N 
  N5       1.0000 0.20920  0.70876  0.80121  Biso   1.000  N 
  N6       1.0000 0.02932  0.57211  0.55345  Biso   1.000  N 
  N7       1.0000 0.53975  0.05491  0.73614  Biso   1.000  N 
  N8       1.0000 0.91669  0.43027  0.73613  Biso   1.000  N 
  N9       1.0000 0.23677  0.79366  0.48835  Biso   1.000  N 
  N10      1.0000 0.52933  0.07212  0.55340  Biso   1.000  N 
  N11      1.0000 0.53959  0.94735  0.23639  Biso   1.000  N 
  N12      1.0000 0.75961  0.74271  0.30109  Biso   1.000  N 
  N13      1.0000 0.25966  0.24273  0.30103  Biso   1.000  N 
  N14      1.0000 0.76003  0.25929  0.80060  Biso   1.000  N 
  N15      1.0000 0.02949  0.43031  0.05333  Biso   1.000  N 
  N16      1.0000 0.52947  0.93031  0.05329  Biso   1.000  N 
  N17      1.0000 0.18591  0.74316  0.48897  Biso   1.000  N 
  N18      1.0000 0.20881  0.29323  0.30171  Biso   1.000  N 
  N19      1.0000 0.68580  0.75896  0.98903  Biso   1.000  N 
  N20      1.0000 0.90643  0.55492  0.05315  Biso   1.000  N 
  N21      1.0000 0.90629  0.44748  0.55339  Biso   1.000  N 
  N22      1.0000 0.70876  0.79320  0.30175  Biso   1.000  N 
  N23      1.0000 0.70918  0.20878  0.80119  Biso   1.000  N 
  N24      1.0000 0.18584  0.25900  0.98897  Biso   1.000  N 
  N25      1.0000 0.40643  0.05492  0.05310  Biso   1.000  N 
  N26      1.0000 0.41653  0.07198  0.23619  Biso   1.000  N 
  N27      1.0000 0.40628  0.94748  0.55335  Biso   1.000  N 
  N28      1.0000 0.41670  0.93027  0.73608  Biso   1.000  N 
  N29      1.0000 0.91652  0.57198  0.23625  Biso   1.000  N 
  N30      1.0000 0.73666  0.70846  0.98837  Biso   1.000  N 
  N31      1.0000 0.03961  0.44735  0.23642  Biso   1.000  N 
  N32      1.0000 0.73677  0.29368  0.48835  Biso   1.000  N 
