data_image0
_cell_length_a       21.975
_cell_length_b       13.7996
_cell_length_c       6.63762
_cell_angle_alpha    89.9381
_cell_angle_beta     82.0145
_cell_angle_gamma    89.9833

_symmetry_space_group_name_H-M    "P 1"
_symmetry_int_tables_number       1

loop_
  _symmetry_equiv_pos_as_xyz
  'x, y, z'

loop_
  _atom_site_label
  _atom_site_occupancy
  _atom_site_fract_x
  _atom_site_fract_y
  _atom_site_fract_z
  _atom_site_thermal_displace_type
  _atom_site_B_iso_or_equiv
  _atom_site_type_symbol
  C1       1.0000 0.37368  0.84061  0.78352  Biso   1.000  C 
  C2       1.0000 0.58820  0.91510  0.29049  Biso   1.000  C 
  C3       1.0000 0.08804  0.58653  0.79101  Biso   1.000  C 
  C4       1.0000 0.57203  0.83982  0.00617  Biso   1.000  C 
  C5       1.0000 0.11354  0.65597  0.64867  Biso   1.000  C 
  C6       1.0000 0.07182  0.66178  0.50634  Biso   1.000  C 
  C7       1.0000 0.61387  0.84596  0.14805  Biso   1.000  C 
  C8       1.0000 0.57190  0.16180  0.50604  Biso   1.000  C 
  C9       1.0000 0.77407  0.29652  0.64446  Biso   1.000  C 
  C10      1.0000 0.58806  0.08643  0.79067  Biso   1.000  C 
  C11      1.0000 0.61361  0.15589  0.64844  Biso   1.000  C 
  C12      1.0000 0.07212  0.33995  0.00623  Biso   1.000  C 
  C13      1.0000 0.11398  0.34619  0.14800  Biso   1.000  C 
  C14      1.0000 0.27498  0.20675  0.14215  Biso   1.000  C 
  C15      1.0000 0.67090  0.20747  0.64786  Biso   1.000  C 
  C16      1.0000 0.85795  0.58623  0.99849  Biso   1.000  C 
  C17      1.0000 0.77478  0.70630  0.14280  Biso   1.000  C 
  C18      1.0000 0.33250  0.15562  0.14062  Biso   1.000  C 
  C19      1.0000 0.08826  0.41524  0.29057  Biso   1.000  C 
  C20      1.0000 0.27400  0.79669  0.64437  Biso   1.000  C 
  C21      1.0000 0.85764  0.41583  0.49898  Biso   1.000  C 
  C22      1.0000 0.83182  0.34698  0.64214  Biso   1.000  C 
  C23      1.0000 0.35801  0.08639  0.99808  Biso   1.000  C 
  C24      1.0000 0.17166  0.29553  0.14611  Biso   1.000  C 
  C25      1.0000 0.87371  0.34056  0.78380  Biso   1.000  C 
  C26      1.0000 0.87431  0.66149  0.28263  Biso   1.000  C 
  C27      1.0000 0.17083  0.70759  0.64793  Biso   1.000  C 
  C28      1.0000 0.37441  0.16160  0.28224  Biso   1.000  C 
  C29      1.0000 0.67145  0.79506  0.14656  Biso   1.000  C 
  C30      1.0000 0.35762  0.91596  0.49879  Biso   1.000  C 
  C31      1.0000 0.33177  0.84713  0.64193  Biso   1.000  C 
  C32      1.0000 0.83238  0.65540  0.14107  Biso   1.000  C 
  Co1      1.0000 0.47307  0.97203  0.89401  Biso   1.000  Co
  Co2      1.0000 0.47311  0.02922  0.39406  Biso   1.000  Co
  Co3      1.0000 0.97309  0.52917  0.39438  Biso   1.000  Co
  Co4      1.0000 0.97306  0.47200  0.89444  Biso   1.000  Co
  H1       1.0000 0.07439  0.70545  0.36934  Biso   1.000  H 
  H2       1.0000 0.57450  0.20547  0.36905  Biso   1.000  H 
  H3       1.0000 0.37192  0.20506  0.41926  Biso   1.000  H 
  H4       1.0000 0.87097  0.29712  0.92115  Biso   1.000  H 
  H5       1.0000 0.87177  0.70496  0.41967  Biso   1.000  H 
  H6       1.0000 0.57467  0.79624  0.86926  Biso   1.000  H 
  H7       1.0000 0.60549  0.94152  0.42564  Biso   1.000  H 
  H8       1.0000 0.10528  0.56024  0.92648  Biso   1.000  H 
  H9       1.0000 0.37092  0.79713  0.92082  Biso   1.000  H 
  H10      1.0000 0.34034  0.94250  0.36358  Biso   1.000  H 
  H11      1.0000 0.34064  0.06001  0.86302  Biso   1.000  H 
  H12      1.0000 0.10555  0.44171  0.42566  Biso   1.000  H 
  H13      1.0000 0.07479  0.29643  0.86924  Biso   1.000  H 
  H14      1.0000 0.60528  0.06005  0.92609  Biso   1.000  H 
  H15      1.0000 0.84036  0.44229  0.36371  Biso   1.000  H 
  H16      1.0000 0.84057  0.55982  0.86349  Biso   1.000  H 
  N1       1.0000 0.92142  0.60037  0.22756  Biso   1.000  N 
  N2       1.0000 0.42107  0.90116  0.72788  Biso   1.000  N 
  N3       1.0000 0.41102  0.94773  0.55193  Biso   1.000  N 
  N4       1.0000 0.42146  0.10036  0.22723  Biso   1.000  N 
  N5       1.0000 0.41122  0.05388  0.05165  Biso   1.000  N 
  N6       1.0000 0.18805  0.23071  0.99450  Biso   1.000  N 
  N7       1.0000 0.70486  0.18653  0.79844  Biso   1.000  N 
  N8       1.0000 0.70566  0.81651  0.29604  Biso   1.000  N 
  N9       1.0000 0.91102  0.44769  0.55220  Biso   1.000  N 
  N10      1.0000 0.91121  0.55386  0.05197  Biso   1.000  N 
  N11      1.0000 0.68780  0.73005  0.99532  Biso   1.000  N 
  N12      1.0000 0.20596  0.31713  0.29524  Biso   1.000  N 
  N13      1.0000 0.52487  0.90090  0.06092  Biso   1.000  N 
  N14      1.0000 0.18699  0.77306  0.49712  Biso   1.000  N 
  N15      1.0000 0.03498  0.44739  0.23693  Biso   1.000  N 
  N16      1.0000 0.02489  0.40087  0.06120  Biso   1.000  N 
  N17      1.0000 0.23966  0.81850  0.49534  Biso   1.000  N 
  N18      1.0000 0.68708  0.27295  0.49707  Biso   1.000  N 
  N19      1.0000 0.25748  0.73211  0.79664  Biso   1.000  N 
  N20      1.0000 0.03502  0.55375  0.73670  Biso   1.000  N 
  N21      1.0000 0.24080  0.18547  0.99245  Biso   1.000  N 
  N22      1.0000 0.20480  0.68671  0.79851  Biso   1.000  N 
  N23      1.0000 0.02488  0.60026  0.56081  Biso   1.000  N 
  N24      1.0000 0.75753  0.23193  0.79666  Biso   1.000  N 
  N25      1.0000 0.92107  0.40118  0.72820  Biso   1.000  N 
  N26      1.0000 0.53503  0.05375  0.73628  Biso   1.000  N 
  N27      1.0000 0.52492  0.10031  0.56042  Biso   1.000  N 
  N28      1.0000 0.53498  0.94741  0.23665  Biso   1.000  N 
  N29      1.0000 0.75841  0.77127  0.29414  Biso   1.000  N 
  N30      1.0000 0.25871  0.27187  0.29324  Biso   1.000  N 
  N31      1.0000 0.74055  0.68482  0.99337  Biso   1.000  N 
  N32      1.0000 0.73975  0.31835  0.49534  Biso   1.000  N 
