data_image0
_cell_length_a       19.8314
_cell_length_b       16.8561
_cell_length_c       6.67667
_cell_angle_alpha    90.1224
_cell_angle_beta     78.3593
_cell_angle_gamma    90.0053

_symmetry_space_group_name_H-M    "P 1"
_symmetry_int_tables_number       1

loop_
  _symmetry_equiv_pos_as_xyz
  'x, y, z'

loop_
  _atom_site_label
  _atom_site_occupancy
  _atom_site_fract_x
  _atom_site_fract_y
  _atom_site_fract_z
  _atom_site_thermal_displace_type
  _atom_site_B_iso_or_equiv
  _atom_site_type_symbol
  C1       1.0000 0.37208  0.85905  0.79272  Biso   1.000  C 
  C2       1.0000 0.09345  0.41493  0.28198  Biso   1.000  C 
  C3       1.0000 0.87199  0.64299  0.29326  Biso   1.000  C 
  C4       1.0000 0.85235  0.41444  0.50757  Biso   1.000  C 
  C5       1.0000 0.82895  0.35409  0.64962  Biso   1.000  C 
  C6       1.0000 0.35259  0.08755  0.00716  Biso   1.000  C 
  C7       1.0000 0.17319  0.30000  0.14159  Biso   1.000  C 
  C8       1.0000 0.87206  0.35906  0.79276  Biso   1.000  C 
  C9       1.0000 0.82915  0.64807  0.14940  Biso   1.000  C 
  C10      1.0000 0.17262  0.70258  0.64317  Biso   1.000  C 
  C11      1.0000 0.37196  0.14296  0.29329  Biso   1.000  C 
  C12      1.0000 0.67320  0.80002  0.14155  Biso   1.000  C 
  C13      1.0000 0.35235  0.91441  0.50755  Biso   1.000  C 
  C14      1.0000 0.32897  0.85406  0.64960  Biso   1.000  C 
  C15      1.0000 0.32913  0.14806  0.14940  Biso   1.000  C 
  C16      1.0000 0.27278  0.79955  0.64794  Biso   1.000  C 
  C17      1.0000 0.85257  0.58752  0.00721  Biso   1.000  C 
  C18      1.0000 0.67266  0.20252  0.64299  Biso   1.000  C 
  C19      1.0000 0.27325  0.20290  0.14683  Biso   1.000  C 
  C20      1.0000 0.11706  0.35452  0.13957  Biso   1.000  C 
  C21      1.0000 0.07409  0.35931  0.99604  Biso   1.000  C 
  C22      1.0000 0.77326  0.70290  0.14682  Biso   1.000  C 
  C23      1.0000 0.61672  0.14775  0.64061  Biso   1.000  C 
  C24      1.0000 0.59339  0.08731  0.78240  Biso   1.000  C 
  C25      1.0000 0.77279  0.29956  0.64784  Biso   1.000  C 
  C26      1.0000 0.57368  0.14274  0.49726  Biso   1.000  C 
  C27      1.0000 0.61707  0.85454  0.13950  Biso   1.000  C 
  C28      1.0000 0.07368  0.64277  0.49732  Biso   1.000  C 
  C29      1.0000 0.11670  0.64780  0.64072  Biso   1.000  C 
  C30      1.0000 0.57408  0.85933  0.99597  Biso   1.000  C 
  C31      1.0000 0.09335  0.58735  0.78253  Biso   1.000  C 
  C32      1.0000 0.59343  0.91493  0.28191  Biso   1.000  C 
  Co1      1.0000 0.97275  0.52233  0.39497  Biso   1.000  Co
  Co2      1.0000 0.97298  0.47956  0.89464  Biso   1.000  Co
  Co3      1.0000 0.47274  0.02232  0.39501  Biso   1.000  Co
  Co4      1.0000 0.47298  0.97958  0.89462  Biso   1.000  Co
  H1       1.0000 0.83410  0.57072  0.87076  Biso   1.000  H 
  H2       1.0000 0.83370  0.43123  0.37160  Biso   1.000  H 
  H3       1.0000 0.61199  0.07055  0.91848  Biso   1.000  H 
  H4       1.0000 0.07525  0.32439  0.85865  Biso   1.000  H 
  H5       1.0000 0.11190  0.43186  0.41837  Biso   1.000  H 
  H6       1.0000 0.37107  0.82415  0.92968  Biso   1.000  H 
  H7       1.0000 0.33367  0.93117  0.37161  Biso   1.000  H 
  H8       1.0000 0.33414  0.07074  0.87069  Biso   1.000  H 
  H9       1.0000 0.11190  0.57056  0.91867  Biso   1.000  H 
  H10      1.0000 0.07469  0.67769  0.36039  Biso   1.000  H 
  H11      1.0000 0.61187  0.93189  0.41829  Biso   1.000  H 
  H12      1.0000 0.57527  0.82440  0.85858  Biso   1.000  H 
  H13      1.0000 0.87090  0.67791  0.43062  Biso   1.000  H 
  H14      1.0000 0.87102  0.32421  0.92981  Biso   1.000  H 
  H15      1.0000 0.37084  0.17786  0.43069  Biso   1.000  H 
  H16      1.0000 0.57469  0.17770  0.36039  Biso   1.000  H 
  N1       1.0000 0.75912  0.75772  0.29888  Biso   1.000  N 
  N2       1.0000 0.54018  0.95251  0.22686  Biso   1.000  N 
  N3       1.0000 0.52787  0.08387  0.55133  Biso   1.000  N 
  N4       1.0000 0.54023  0.04948  0.72716  Biso   1.000  N 
  N5       1.0000 0.91793  0.41786  0.73842  Biso   1.000  N 
  N6       1.0000 0.75869  0.24501  0.79993  Biso   1.000  N 
  N7       1.0000 0.02786  0.58389  0.55137  Biso   1.000  N 
  N8       1.0000 0.20749  0.69563  0.79774  Biso   1.000  N 
  N9       1.0000 0.23861  0.19595  0.99163  Biso   1.000  N 
  N10      1.0000 0.04021  0.54951  0.72722  Biso   1.000  N 
  N11      1.0000 0.25862  0.74508  0.80019  Biso   1.000  N 
  N12      1.0000 0.68658  0.25730  0.49138  Biso   1.000  N 
  N13      1.0000 0.02808  0.41805  0.05055  Biso   1.000  N 
  N14      1.0000 0.23769  0.80675  0.49391  Biso   1.000  N 
  N15      1.0000 0.73861  0.69593  0.99167  Biso   1.000  N 
  N16      1.0000 0.04022  0.45254  0.22687  Biso   1.000  N 
  N17      1.0000 0.90557  0.45222  0.56251  Biso   1.000  N 
  N18      1.0000 0.91775  0.58397  0.23909  Biso   1.000  N 
  N19      1.0000 0.41793  0.91788  0.73840  Biso   1.000  N 
  N20      1.0000 0.40556  0.95222  0.56251  Biso   1.000  N 
  N21      1.0000 0.41774  0.08398  0.23910  Biso   1.000  N 
  N22      1.0000 0.40560  0.04961  0.06262  Biso   1.000  N 
  N23      1.0000 0.18754  0.24543  0.98897  Biso   1.000  N 
  N24      1.0000 0.18653  0.75736  0.49158  Biso   1.000  N 
  N25      1.0000 0.70802  0.80717  0.29628  Biso   1.000  N 
  N26      1.0000 0.70757  0.19556  0.79750  Biso   1.000  N 
  N27      1.0000 0.90558  0.54958  0.06266  Biso   1.000  N 
  N28      1.0000 0.68755  0.74544  0.98893  Biso   1.000  N 
  N29      1.0000 0.20801  0.30717  0.29632  Biso   1.000  N 
  N30      1.0000 0.52804  0.91803  0.05052  Biso   1.000  N 
  N31      1.0000 0.25910  0.25770  0.29893  Biso   1.000  N 
  N32      1.0000 0.73769  0.30676  0.49384  Biso   1.000  N 
