data_image0
_cell_length_a       24.1349
_cell_length_b       7.69316
_cell_length_c       6.97138
_cell_angle_alpha    90.2041
_cell_angle_beta     90.1352
_cell_angle_gamma    90.0068

_symmetry_space_group_name_H-M    "P 1"
_symmetry_int_tables_number       1

loop_
  _symmetry_equiv_pos_as_xyz
  'x, y, z'

loop_
  _atom_site_label
  _atom_site_occupancy
  _atom_site_fract_x
  _atom_site_fract_y
  _atom_site_fract_z
  _atom_site_thermal_displace_type
  _atom_site_B_iso_or_equiv
  _atom_site_type_symbol
  C1       1.0000 0.37471  0.76494  0.77180  Biso   1.000  C 
  C2       1.0000 0.87481  0.26456  0.77155  Biso   1.000  C 
  C3       1.0000 0.08128  0.37162  0.31054  Biso   1.000  C 
  C4       1.0000 0.27580  0.76360  0.63413  Biso   1.000  C 
  C5       1.0000 0.86455  0.37172  0.47828  Biso   1.000  C 
  C6       1.0000 0.36495  0.12994  0.97823  Biso   1.000  C 
  C7       1.0000 0.17004  0.26233  0.15514  Biso   1.000  C 
  C8       1.0000 0.33527  0.78758  0.62520  Biso   1.000  C 
  C9       1.0000 0.87493  0.73611  0.27265  Biso   1.000  C 
  C10      1.0000 0.16952  0.74238  0.65746  Biso   1.000  C 
  C11      1.0000 0.37500  0.23654  0.27269  Biso   1.000  C 
  C12      1.0000 0.36449  0.87216  0.47854  Biso   1.000  C 
  C13      1.0000 0.77622  0.74013  0.13318  Biso   1.000  C 
  C14      1.0000 0.83564  0.71452  0.12523  Biso   1.000  C 
  C15      1.0000 0.33575  0.21516  0.12511  Biso   1.000  C 
  C16      1.0000 0.11014  0.71591  0.66521  Biso   1.000  C 
  C17      1.0000 0.66993  0.76153  0.15572  Biso   1.000  C 
  C18      1.0000 0.66963  0.24171  0.65743  Biso   1.000  C 
  C19      1.0000 0.77590  0.26288  0.63389  Biso   1.000  C 
  C20      1.0000 0.83537  0.28704  0.62495  Biso   1.000  C 
  C21      1.0000 0.11057  0.28692  0.16345  Biso   1.000  C 
  C22      1.0000 0.07124  0.26472  0.01623  Biso   1.000  C 
  C23      1.0000 0.61023  0.21544  0.66536  Biso   1.000  C 
  C24      1.0000 0.58117  0.12980  0.81165  Biso   1.000  C 
  C25      1.0000 0.08109  0.63018  0.81146  Biso   1.000  C 
  C26      1.0000 0.27634  0.24104  0.13281  Biso   1.000  C 
  C27      1.0000 0.61047  0.78647  0.16394  Biso   1.000  C 
  C28      1.0000 0.07077  0.73715  0.51811  Biso   1.000  C 
  C29      1.0000 0.57115  0.76443  0.01666  Biso   1.000  C 
  C30      1.0000 0.86483  0.62939  0.97826  Biso   1.000  C 
  C31      1.0000 0.58121  0.87133  0.31097  Biso   1.000  C 
  C32      1.0000 0.57085  0.23688  0.51835  Biso   1.000  C 
  Co1      1.0000 0.97291  0.53515  0.39474  Biso   1.000  Co
  Co2      1.0000 0.97303  0.46447  0.89434  Biso   1.000  Co
  Co3      1.0000 0.47290  0.03520  0.39504  Biso   1.000  Co
  Co4      1.0000 0.47302  0.96452  0.89462  Biso   1.000  Co
  H1       1.0000 0.35000  0.08973  0.83819  Biso   1.000  H 
  H2       1.0000 0.34944  0.91297  0.33916  Biso   1.000  H 
  H3       1.0000 0.84986  0.58910  0.83829  Biso   1.000  H 
  H4       1.0000 0.84948  0.41248  0.33890  Biso   1.000  H 
  H5       1.0000 0.59624  0.08944  0.95117  Biso   1.000  H 
  H6       1.0000 0.07671  0.20884  0.87435  Biso   1.000  H 
  H7       1.0000 0.36931  0.70907  0.91327  Biso   1.000  H 
  H8       1.0000 0.09626  0.41217  0.45043  Biso   1.000  H 
  H9       1.0000 0.86950  0.79205  0.41451  Biso   1.000  H 
  H10      1.0000 0.09615  0.58991  0.95102  Biso   1.000  H 
  H11      1.0000 0.57660  0.70852  0.87480  Biso   1.000  H 
  H12      1.0000 0.86944  0.20870  0.91302  Biso   1.000  H 
  H13      1.0000 0.36955  0.29247  0.41455  Biso   1.000  H 
  H14      1.0000 0.57617  0.29313  0.37702  Biso   1.000  H 
  H15      1.0000 0.07609  0.79336  0.37677  Biso   1.000  H 
  H16      1.0000 0.59618  0.91184  0.45089  Biso   1.000  H 
  N1       1.0000 0.75457  0.81567  0.29234  Biso   1.000  N 
  N2       1.0000 0.52889  0.90211  0.25318  Biso   1.000  N 
  N3       1.0000 0.52235  0.16407  0.57117  Biso   1.000  N 
  N4       1.0000 0.24533  0.82906  0.48713  Biso   1.000  N 
  N5       1.0000 0.92346  0.33605  0.71824  Biso   1.000  N 
  N6       1.0000 0.52890  0.09804  0.75365  Biso   1.000  N 
  N7       1.0000 0.24600  0.17699  0.98419  Biso   1.000  N 
  N8       1.0000 0.19998  0.67882  0.80554  Biso   1.000  N 
  N9       1.0000 0.75435  0.18883  0.79351  Biso   1.000  N 
  N10      1.0000 0.02884  0.59819  0.75338  Biso   1.000  N 
  N11      1.0000 0.25423  0.68966  0.79378  Biso   1.000  N 
  N12      1.0000 0.69115  0.31738  0.49873  Biso   1.000  N 
  N13      1.0000 0.02894  0.40221  0.25283  Biso   1.000  N 
  N14      1.0000 0.02229  0.66415  0.57087  Biso   1.000  N 
  N15      1.0000 0.25466  0.31675  0.29180  Biso   1.000  N 
  N16      1.0000 0.74585  0.67584  0.98477  Biso   1.000  N 
  N17      1.0000 0.19174  0.18787  0.99546  Biso   1.000  N 
  N18      1.0000 0.92351  0.66377  0.21938  Biso   1.000  N 
  N19      1.0000 0.42339  0.83627  0.71852  Biso   1.000  N 
  N20      1.0000 0.41690  0.90239  0.53604  Biso   1.000  N 
  N21      1.0000 0.19107  0.81824  0.49890  Biso   1.000  N 
  N22      1.0000 0.41718  0.09826  0.03642  Biso   1.000  N 
  N23      1.0000 0.42357  0.16400  0.21961  Biso   1.000  N 
  N24      1.0000 0.70011  0.17801  0.80539  Biso   1.000  N 
  N25      1.0000 0.70031  0.82656  0.30370  Biso   1.000  N 
  N26      1.0000 0.91695  0.40214  0.53576  Biso   1.000  N 
  N27      1.0000 0.91710  0.59795  0.03623  Biso   1.000  N 
  N28      1.0000 0.69159  0.68676  0.99613  Biso   1.000  N 
  N29      1.0000 0.20040  0.32761  0.30307  Biso   1.000  N 
  N30      1.0000 0.02257  0.33631  0.06968  Biso   1.000  N 
  N31      1.0000 0.52251  0.83622  0.07004  Biso   1.000  N 
  N32      1.0000 0.74542  0.32817  0.48685  Biso   1.000  N 
