data_image0
_cell_length_a       23.9935
_cell_length_b       8.49146
_cell_length_c       6.92442
_cell_angle_alpha    90.1742
_cell_angle_beta     89.3382
_cell_angle_gamma    90.0086

_symmetry_space_group_name_H-M    "P 1"
_symmetry_int_tables_number       1

loop_
  _symmetry_equiv_pos_as_xyz
  'x, y, z'

loop_
  _atom_site_label
  _atom_site_occupancy
  _atom_site_fract_x
  _atom_site_fract_y
  _atom_site_fract_z
  _atom_site_thermal_displace_type
  _atom_site_B_iso_or_equiv
  _atom_site_type_symbol
  C1       1.0000 0.37489  0.78170  0.77255  Biso   1.000  C 
  C2       1.0000 0.77593  0.27131  0.63509  Biso   1.000  C 
  C3       1.0000 0.27635  0.23237  0.13360  Biso   1.000  C 
  C4       1.0000 0.11066  0.30175  0.16193  Biso   1.000  C 
  C5       1.0000 0.07109  0.28149  0.01572  Biso   1.000  C 
  C6       1.0000 0.61034  0.20059  0.66386  Biso   1.000  C 
  C7       1.0000 0.58177  0.11759  0.80964  Biso   1.000  C 
  C8       1.0000 0.08170  0.61793  0.80957  Biso   1.000  C 
  C9       1.0000 0.57074  0.22024  0.51778  Biso   1.000  C 
  C10      1.0000 0.61055  0.80111  0.16235  Biso   1.000  C 
  C11      1.0000 0.07069  0.72044  0.51764  Biso   1.000  C 
  C12      1.0000 0.57099  0.78105  0.01608  Biso   1.000  C 
  C13      1.0000 0.86425  0.61735  0.98004  Biso   1.000  C 
  C14      1.0000 0.58183  0.88359  0.30882  Biso   1.000  C 
  C15      1.0000 0.66956  0.23314  0.65647  Biso   1.000  C 
  C16      1.0000 0.83528  0.30178  0.62657  Biso   1.000  C 
  C17      1.0000 0.11027  0.70097  0.66383  Biso   1.000  C 
  C18      1.0000 0.33561  0.20033  0.12640  Biso   1.000  C 
  C19      1.0000 0.83552  0.69981  0.12650  Biso   1.000  C 
  C20      1.0000 0.77624  0.73158  0.13394  Biso   1.000  C 
  C21      1.0000 0.36394  0.88424  0.48068  Biso   1.000  C 
  C22      1.0000 0.66985  0.76980  0.15454  Biso   1.000  C 
  C23      1.0000 0.37511  0.21981  0.27304  Biso   1.000  C 
  C24      1.0000 0.16948  0.73371  0.65665  Biso   1.000  C 
  C25      1.0000 0.87504  0.71950  0.27299  Biso   1.000  C 
  C26      1.0000 0.33521  0.80230  0.62696  Biso   1.000  C 
  C27      1.0000 0.16997  0.27073  0.15400  Biso   1.000  C 
  C28      1.0000 0.36434  0.11778  0.98003  Biso   1.000  C 
  C29      1.0000 0.86399  0.38385  0.48034  Biso   1.000  C 
  C30      1.0000 0.27584  0.77202  0.63551  Biso   1.000  C 
  C31      1.0000 0.08189  0.38399  0.30851  Biso   1.000  C 
  C32      1.0000 0.87496  0.28139  0.77226  Biso   1.000  C 
  Co1      1.0000 0.47293  0.03478  0.39482  Biso   1.000  Co
  Co2      1.0000 0.47304  0.96543  0.89447  Biso   1.000  Co
  Co3      1.0000 0.97303  0.46546  0.89425  Biso   1.000  Co
  Co4      1.0000 0.97294  0.53472  0.39458  Biso   1.000  Co
  H1       1.0000 0.59711  0.92247  0.44778  Biso   1.000  H 
  H2       1.0000 0.07570  0.77477  0.37681  Biso   1.000  H 
  H3       1.0000 0.57575  0.27460  0.37697  Biso   1.000  H 
  H4       1.0000 0.37000  0.27380  0.41444  Biso   1.000  H 
  H5       1.0000 0.86988  0.22755  0.91336  Biso   1.000  H 
  H6       1.0000 0.86993  0.77343  0.41441  Biso   1.000  H 
  H7       1.0000 0.09701  0.57939  0.94835  Biso   1.000  H 
  H8       1.0000 0.57610  0.72696  0.87474  Biso   1.000  H 
  H9       1.0000 0.09715  0.42281  0.44754  Biso   1.000  H 
  H10      1.0000 0.34910  0.07928  0.84087  Biso   1.000  H 
  H11      1.0000 0.36980  0.72777  0.91360  Biso   1.000  H 
  H12      1.0000 0.07622  0.22741  0.87438  Biso   1.000  H 
  H13      1.0000 0.59711  0.07890  0.94833  Biso   1.000  H 
  H14      1.0000 0.84861  0.42283  0.34186  Biso   1.000  H 
  H15      1.0000 0.84901  0.57874  0.84093  Biso   1.000  H 
  H16      1.0000 0.34858  0.92325  0.34219  Biso   1.000  H 
  N1       1.0000 0.20098  0.32648  0.30221  Biso   1.000  N 
  N2       1.0000 0.69093  0.69591  0.99579  Biso   1.000  N 
  N3       1.0000 0.91656  0.58697  0.03728  Biso   1.000  N 
  N4       1.0000 0.91644  0.41342  0.53698  Biso   1.000  N 
  N5       1.0000 0.70087  0.82537  0.30284  Biso   1.000  N 
  N6       1.0000 0.70063  0.17878  0.80484  Biso   1.000  N 
  N7       1.0000 0.42343  0.15013  0.21950  Biso   1.000  N 
  N8       1.0000 0.41662  0.08716  0.03742  Biso   1.000  N 
  N9       1.0000 0.19040  0.80872  0.49900  Biso   1.000  N 
  N10      1.0000 0.41642  0.91358  0.53722  Biso   1.000  N 
  N11      1.0000 0.42335  0.85028  0.71864  Biso   1.000  N 
  N12      1.0000 0.92339  0.65001  0.21932  Biso   1.000  N 
  N13      1.0000 0.74525  0.67644  0.98537  Biso   1.000  N 
  N14      1.0000 0.19107  0.19702  0.99515  Biso   1.000  N 
  N15      1.0000 0.52261  0.85032  0.06985  Biso   1.000  N 
  N16      1.0000 0.25529  0.30695  0.29190  Biso   1.000  N 
  N17      1.0000 0.75494  0.19825  0.79403  Biso   1.000  N 
  N18      1.0000 0.75518  0.80588  0.29244  Biso   1.000  N 
  N19      1.0000 0.52947  0.91357  0.25179  Biso   1.000  N 
  N20      1.0000 0.52247  0.15028  0.57101  Biso   1.000  N 
  N21      1.0000 0.24471  0.82830  0.48835  Biso   1.000  N 
  N22      1.0000 0.92338  0.35018  0.71842  Biso   1.000  N 
  N23      1.0000 0.52946  0.08697  0.75237  Biso   1.000  N 
  N24      1.0000 0.02244  0.65034  0.57077  Biso   1.000  N 
  N25      1.0000 0.20053  0.67950  0.80516  Biso   1.000  N 
  N26      1.0000 0.24538  0.17743  0.98486  Biso   1.000  N 
  N27      1.0000 0.02941  0.58713  0.75217  Biso   1.000  N 
  N28      1.0000 0.25484  0.69900  0.79446  Biso   1.000  N 
  N29      1.0000 0.69047  0.30802  0.49871  Biso   1.000  N 
  N30      1.0000 0.02950  0.41369  0.25157  Biso   1.000  N 
  N31      1.0000 0.02267  0.35046  0.06961  Biso   1.000  N 
  N32      1.0000 0.74478  0.32750  0.48791  Biso   1.000  N 
