data_image0
_cell_length_a       6.44338
_cell_length_b       34.9312
_cell_length_c       6.49074
_cell_angle_alpha    90.1464
_cell_angle_beta     89.9602
_cell_angle_gamma    90.2429

_symmetry_space_group_name_H-M    "P 1"
_symmetry_int_tables_number       1

loop_
  _symmetry_equiv_pos_as_xyz
  'x, y, z'

loop_
  _atom_site_label
  _atom_site_occupancy
  _atom_site_fract_x
  _atom_site_fract_y
  _atom_site_fract_z
  _atom_site_thermal_displace_type
  _atom_site_B_iso_or_equiv
  _atom_site_type_symbol
  C1       1.0000 0.23598  0.11637  0.89782  Biso   1.000  C 
  C2       1.0000 0.21296  0.29102  0.11164  Biso   1.000  C 
  C3       1.0000 0.73483  0.73127  0.92005  Biso   1.000  C 
  C4       1.0000 0.71282  0.35164  0.44073  Biso   1.000  C 
  C5       1.0000 0.30125  0.38698  0.94859  Biso   1.000  C 
  C6       1.0000 0.85303  0.44565  0.60687  Biso   1.000  C 
  C7       1.0000 0.80141  0.88699  0.94871  Biso   1.000  C 
  C8       1.0000 0.81080  0.95511  0.80775  Biso   1.000  C 
  C9       1.0000 0.31073  0.45511  0.80767  Biso   1.000  C 
  C10      1.0000 0.29480  0.69082  0.41248  Biso   1.000  C 
  C11      1.0000 0.69423  0.29098  0.24936  Biso   1.000  C 
  C12      1.0000 0.19430  0.79098  0.24935  Biso   1.000  C 
  C13      1.0000 0.71328  0.25153  0.24290  Biso   1.000  C 
  C14      1.0000 0.21331  0.75153  0.24288  Biso   1.000  C 
  C15      1.0000 0.14893  0.44578  0.10681  Biso   1.000  C 
  C16      1.0000 0.80386  0.15591  0.40608  Biso   1.000  C 
  C17      1.0000 0.81421  0.25149  0.60373  Biso   1.000  C 
  C18      1.0000 0.31420  0.75148  0.60372  Biso   1.000  C 
  C19      1.0000 0.79505  0.29094  0.61021  Biso   1.000  C 
  C20      1.0000 0.29509  0.79093  0.61021  Biso   1.000  C 
  C21      1.0000 0.73369  0.31146  0.43319  Biso   1.000  C 
  C22      1.0000 0.85529  0.59711  0.74737  Biso   1.000  C 
  C23      1.0000 0.35535  0.09711  0.74742  Biso   1.000  C 
  C24      1.0000 0.73595  0.61637  0.89778  Biso   1.000  C 
  C25      1.0000 0.23376  0.81145  0.43318  Biso   1.000  C 
  C26      1.0000 0.69388  0.58798  0.04687  Biso   1.000  C 
  C27      1.0000 0.19387  0.08798  0.04690  Biso   1.000  C 
  C28      1.0000 0.20295  0.88654  0.44745  Biso   1.000  C 
  C29      1.0000 0.70290  0.38654  0.44744  Biso   1.000  C 
  C30      1.0000 0.30384  0.65591  0.40601  Biso   1.000  C 
  C31      1.0000 0.64903  0.94579  0.10690  Biso   1.000  C 
  C32      1.0000 0.71494  0.69103  0.91212  Biso   1.000  C 
  C33      1.0000 0.79482  0.19082  0.41253  Biso   1.000  C 
  C34      1.0000 0.20557  0.15611  0.90608  Biso   1.000  C 
  C35      1.0000 0.76945  0.92669  0.95679  Biso   1.000  C 
  C36      1.0000 0.26934  0.42668  0.95669  Biso   1.000  C 
  C37      1.0000 0.77457  0.23101  0.41995  Biso   1.000  C 
  C38      1.0000 0.27456  0.73101  0.41992  Biso   1.000  C 
  C39      1.0000 0.35309  0.94563  0.60690  Biso   1.000  C 
  C40      1.0000 0.70557  0.65611  0.90605  Biso   1.000  C 
  C41      1.0000 0.71302  0.79101  0.11168  Biso   1.000  C 
  C42      1.0000 0.19492  0.25153  0.10434  Biso   1.000  C 
  C43      1.0000 0.27196  0.61617  0.39737  Biso   1.000  C 
  C44      1.0000 0.77198  0.11617  0.39743  Biso   1.000  C 
  C45      1.0000 0.15156  0.59697  0.24706  Biso   1.000  C 
  C46      1.0000 0.65159  0.09697  0.24711  Biso   1.000  C 
  C47      1.0000 0.69496  0.75152  0.10435  Biso   1.000  C 
  C48      1.0000 0.23483  0.23126  0.92006  Biso   1.000  C 
  C49      1.0000 0.21494  0.19103  0.91214  Biso   1.000  C 
  C50      1.0000 0.29560  0.25206  0.74339  Biso   1.000  C 
  C51      1.0000 0.79559  0.75207  0.74339  Biso   1.000  C 
  C52      1.0000 0.31368  0.29155  0.75068  Biso   1.000  C 
  C53      1.0000 0.81370  0.79156  0.75074  Biso   1.000  C 
  C54      1.0000 0.27365  0.31181  0.93495  Biso   1.000  C 
  C55      1.0000 0.77370  0.81182  0.93503  Biso   1.000  C 
  C56      1.0000 0.29294  0.35205  0.94272  Biso   1.000  C 
  C57      1.0000 0.79308  0.85206  0.94285  Biso   1.000  C 
  C58      1.0000 0.81265  0.08777  0.54629  Biso   1.000  C 
  C59      1.0000 0.19202  0.95471  0.30762  Biso   1.000  C 
  C60      1.0000 0.69196  0.45471  0.30758  Biso   1.000  C 
  C61      1.0000 0.23345  0.92632  0.45641  Biso   1.000  C 
  C62      1.0000 0.73342  0.42632  0.45639  Biso   1.000  C 
  C63      1.0000 0.21291  0.85164  0.44072  Biso   1.000  C 
  C64      1.0000 0.31263  0.58777  0.54626  Biso   1.000  C 
  Co1      1.0000 0.55937  0.02142  0.67717  Biso   1.000  Co
  Co2      1.0000 0.05933  0.52142  0.67711  Biso   1.000  Co
  Co3      1.0000 0.44318  0.02137  0.17702  Biso   1.000  Co
  Co4      1.0000 0.94319  0.52137  0.17694  Biso   1.000  Co
  H1       1.0000 0.58433  0.93440  0.24848  Biso   1.000  H 
  H2       1.0000 0.91764  0.43436  0.74843  Biso   1.000  H 
  H3       1.0000 0.68135  0.80637  0.25449  Biso   1.000  H 
  H4       1.0000 0.58728  0.10831  0.10557  Biso   1.000  H 
  H5       1.0000 0.60836  0.45224  0.16293  Biso   1.000  H 
  H6       1.0000 0.10845  0.95224  0.16296  Biso   1.000  H 
  H7       1.0000 0.14961  0.23564  0.24117  Biso   1.000  H 
  H8       1.0000 0.08728  0.60832  0.10552  Biso   1.000  H 
  H9       1.0000 0.32727  0.23670  0.60062  Biso   1.000  H 
  H10      1.0000 0.64970  0.73563  0.24115  Biso   1.000  H 
  H11      1.0000 0.39631  0.59018  0.69089  Biso   1.000  H 
  H12      1.0000 0.64842  0.30666  0.11228  Biso   1.000  H 
  H13      1.0000 0.85901  0.80746  0.61390  Biso   1.000  H 
  H14      1.0000 0.35896  0.30744  0.61383  Biso   1.000  H 
  H15      1.0000 0.82725  0.73671  0.60062  Biso   1.000  H 
  H16      1.0000 0.11032  0.09041  0.19165  Biso   1.000  H 
  H17      1.0000 0.41775  0.93434  0.74842  Biso   1.000  H 
  H18      1.0000 0.82635  0.30648  0.75261  Biso   1.000  H 
  H19      1.0000 0.18193  0.73598  0.10054  Biso   1.000  H 
  H20      1.0000 0.61036  0.59042  0.19161  Biso   1.000  H 
  H21      1.0000 0.42032  0.10842  0.60575  Biso   1.000  H 
  H22      1.0000 0.68190  0.23598  0.10056  Biso   1.000  H 
  H23      1.0000 0.92021  0.60841  0.60566  Biso   1.000  H 
  H24      1.0000 0.39470  0.45276  0.66314  Biso   1.000  H 
  H25      1.0000 0.89632  0.09017  0.69092  Biso   1.000  H 
  H26      1.0000 0.08418  0.43439  0.24837  Biso   1.000  H 
  H27      1.0000 0.14854  0.80666  0.11227  Biso   1.000  H 
  H28      1.0000 0.89485  0.95276  0.66325  Biso   1.000  H 
  H29      1.0000 0.18125  0.30638  0.25439  Biso   1.000  H 
  H30      1.0000 0.86001  0.23582  0.74084  Biso   1.000  H 
  H31      1.0000 0.36000  0.73581  0.74082  Biso   1.000  H 
  H32      1.0000 0.32639  0.80647  0.75260  Biso   1.000  H 
  N1       1.0000 0.78698  0.55494  0.99131  Biso   1.000  N 
  N2       1.0000 0.11820  0.56062  0.30653  Biso   1.000  N 
  N3       1.0000 0.71771  0.05476  0.49077  Biso   1.000  N 
  N4       1.0000 0.21769  0.55476  0.49074  Biso   1.000  N 
  N5       1.0000 0.61640  0.98210  0.04725  Biso   1.000  N 
  N6       1.0000 0.71633  0.98804  0.86308  Biso   1.000  N 
  N7       1.0000 0.38670  0.06076  0.80691  Biso   1.000  N 
  N8       1.0000 0.28583  0.98781  0.36334  Biso   1.000  N 
  N9       1.0000 0.78576  0.48782  0.36328  Biso   1.000  N 
  N10      1.0000 0.88524  0.48204  0.54759  Biso   1.000  N 
  N11      1.0000 0.28697  0.05494  0.99133  Biso   1.000  N 
  N12      1.0000 0.38529  0.98203  0.54765  Biso   1.000  N 
  N13      1.0000 0.21630  0.48803  0.86302  Biso   1.000  N 
  N14      1.0000 0.88666  0.56076  0.80687  Biso   1.000  N 
  N15      1.0000 0.61821  0.06063  0.30658  Biso   1.000  N 
  N16      1.0000 0.11636  0.48209  0.04718  Biso   1.000  N 
