data_image0
_cell_length_a       16.3794
_cell_length_b       32.9168
_cell_length_c       6.48729
_cell_angle_alpha    98.6671
_cell_angle_beta     90.3381
_cell_angle_gamma    90.0102

_symmetry_space_group_name_H-M    "P 1"
_symmetry_int_tables_number       1

loop_
  _symmetry_equiv_pos_as_xyz
  'x, y, z'

loop_
  _atom_site_label
  _atom_site_occupancy
  _atom_site_fract_x
  _atom_site_fract_y
  _atom_site_fract_z
  _atom_site_thermal_displace_type
  _atom_site_B_iso_or_equiv
  _atom_site_type_symbol
  C1       1.0000 0.37727  0.11793  0.93187  Biso   1.000  C 
  C2       1.0000 0.16519  0.38602  0.91685  Biso   1.000  C 
  C3       1.0000 0.93533  0.44302  0.56752  Biso   1.000  C 
  C4       1.0000 0.66550  0.88612  0.91710  Biso   1.000  C 
  C5       1.0000 0.66538  0.15677  0.43937  Biso   1.000  C 
  C6       1.0000 0.16549  0.65675  0.43956  Biso   1.000  C 
  C7       1.0000 0.69340  0.19114  0.43820  Biso   1.000  C 
  C8       1.0000 0.63695  0.95353  0.78227  Biso   1.000  C 
  C9       1.0000 0.13692  0.45349  0.78231  Biso   1.000  C 
  C10      1.0000 0.19350  0.69112  0.43849  Biso   1.000  C 
  C11      1.0000 0.73697  0.29046  0.25189  Biso   1.000  C 
  C12      1.0000 0.23702  0.79043  0.25207  Biso   1.000  C 
  C13      1.0000 0.70831  0.25104  0.25808  Biso   1.000  C 
  C14      1.0000 0.20838  0.75100  0.25831  Biso   1.000  C 
  C15      1.0000 0.07091  0.44292  0.06839  Biso   1.000  C 
  C16      1.0000 0.62860  0.92473  0.92168  Biso   1.000  C 
  C17      1.0000 0.76900  0.25241  0.60193  Biso   1.000  C 
  C18      1.0000 0.26910  0.75240  0.60214  Biso   1.000  C 
  C19      1.0000 0.79767  0.29184  0.59575  Biso   1.000  C 
  C20      1.0000 0.29775  0.79183  0.59591  Biso   1.000  C 
  C21      1.0000 0.78233  0.31170  0.42063  Biso   1.000  C 
  C22      1.0000 0.93525  0.59984  0.78508  Biso   1.000  C 
  C23      1.0000 0.43495  0.09982  0.78509  Biso   1.000  C 
  C24      1.0000 0.87764  0.61801  0.93190  Biso   1.000  C 
  C25      1.0000 0.28238  0.81168  0.42076  Biso   1.000  C 
  C26      1.0000 0.86914  0.58912  0.07078  Biso   1.000  C 
  C27      1.0000 0.36890  0.08903  0.07077  Biso   1.000  C 
  C28      1.0000 0.34074  0.88605  0.41437  Biso   1.000  C 
  C29      1.0000 0.84075  0.38607  0.41434  Biso   1.000  C 
  C30      1.0000 0.12843  0.42467  0.92157  Biso   1.000  C 
  C31      1.0000 0.57105  0.94296  0.06849  Biso   1.000  C 
  C32      1.0000 0.81268  0.35171  0.41554  Biso   1.000  C 
  C33      1.0000 0.72367  0.23117  0.43314  Biso   1.000  C 
  C34      1.0000 0.34037  0.15655  0.93739  Biso   1.000  C 
  C35      1.0000 0.22376  0.73114  0.43340  Biso   1.000  C 
  C36      1.0000 0.43528  0.94303  0.56754  Biso   1.000  C 
  C37      1.0000 0.84091  0.65668  0.93739  Biso   1.000  C 
  C38      1.0000 0.31232  0.19095  0.93727  Biso   1.000  C 
  C39      1.0000 0.13697  0.58939  0.57436  Biso   1.000  C 
  C40      1.0000 0.63685  0.08945  0.57437  Biso   1.000  C 
  C41      1.0000 0.70890  0.79156  0.09680  Biso   1.000  C 
  C42      1.0000 0.23707  0.25201  0.10182  Biso   1.000  C 
  C43      1.0000 0.12866  0.61810  0.43425  Biso   1.000  C 
  C44      1.0000 0.62856  0.11813  0.43414  Biso   1.000  C 
  C45      1.0000 0.07115  0.59974  0.28572  Biso   1.000  C 
  C46      1.0000 0.57107  0.09975  0.28560  Biso   1.000  C 
  C47      1.0000 0.73759  0.75211  0.10188  Biso   1.000  C 
  C48      1.0000 0.28210  0.23102  0.93333  Biso   1.000  C 
  C49      1.0000 0.81293  0.69108  0.93726  Biso   1.000  C 
  C50      1.0000 0.29727  0.25119  0.75958  Biso   1.000  C 
  C51      1.0000 0.79785  0.75136  0.75978  Biso   1.000  C 
  C52      1.0000 0.26865  0.29065  0.75440  Biso   1.000  C 
  C53      1.0000 0.76919  0.79082  0.75475  Biso   1.000  C 
  C54      1.0000 0.22355  0.31164  0.92281  Biso   1.000  C 
  C55      1.0000 0.72401  0.81176  0.92314  Biso   1.000  C 
  C56      1.0000 0.19321  0.35167  0.91827  Biso   1.000  C 
  C57      1.0000 0.69362  0.85178  0.91866  Biso   1.000  C 
  C58      1.0000 0.78269  0.73115  0.93338  Biso   1.000  C 
  C59      1.0000 0.36923  0.95338  0.27927  Biso   1.000  C 
  C60      1.0000 0.86926  0.45339  0.27930  Biso   1.000  C 
  C61      1.0000 0.37763  0.92468  0.41938  Biso   1.000  C 
  C62      1.0000 0.87766  0.42469  0.41939  Biso   1.000  C 
  C63      1.0000 0.31269  0.85169  0.41562  Biso   1.000  C 
  C64      1.0000 0.20845  0.29148  0.09661  Biso   1.000  C 
  Co1      1.0000 0.02841  0.52146  0.67718  Biso   1.000  Co
  Co2      1.0000 0.52831  0.02149  0.67717  Biso   1.000  Co
  Co3      1.0000 0.97792  0.52129  0.17597  Biso   1.000  Co
  Co4      1.0000 0.47791  0.02128  0.17594  Biso   1.000  Co
  H1       1.0000 0.54688  0.11119  0.14915  Biso   1.000  H 
  H2       1.0000 0.22499  0.23682  0.23669  Biso   1.000  H 
  H3       1.0000 0.33169  0.09067  0.20968  Biso   1.000  H 
  H4       1.0000 0.54675  0.93138  0.20375  Biso   1.000  H 
  H5       1.0000 0.83203  0.45157  0.13921  Biso   1.000  H 
  H6       1.0000 0.33201  0.95155  0.13916  Biso   1.000  H 
  H7       1.0000 0.95968  0.43154  0.70370  Biso   1.000  H 
  H8       1.0000 0.04694  0.61120  0.14934  Biso   1.000  H 
  H9       1.0000 0.78131  0.80605  0.62004  Biso   1.000  H 
  H10      1.0000 0.28076  0.30584  0.61956  Biso   1.000  H 
  H11      1.0000 0.83272  0.73549  0.62930  Biso   1.000  H 
  H12      1.0000 0.33208  0.23527  0.62908  Biso   1.000  H 
  H13      1.0000 0.72553  0.73689  0.23667  Biso   1.000  H 
  H14      1.0000 0.17407  0.59123  0.71467  Biso   1.000  H 
  H15      1.0000 0.72470  0.30542  0.11602  Biso   1.000  H 
  H16      1.0000 0.67404  0.80743  0.22731  Biso   1.000  H 
  H17      1.0000 0.45927  0.11148  0.65005  Biso   1.000  H 
  H18      1.0000 0.17365  0.30739  0.22715  Biso   1.000  H 
  H19      1.0000 0.67328  0.23492  0.12734  Biso   1.000  H 
  H20      1.0000 0.67392  0.09131  0.71474  Biso   1.000  H 
  H21      1.0000 0.45964  0.93156  0.70374  Biso   1.000  H 
  H22      1.0000 0.17336  0.73487  0.12759  Biso   1.000  H 
  H23      1.0000 0.95962  0.61147  0.65001  Biso   1.000  H 
  H24      1.0000 0.17406  0.45174  0.64323  Biso   1.000  H 
  H25      1.0000 0.83191  0.59079  0.20967  Biso   1.000  H 
  H26      1.0000 0.78126  0.23745  0.73780  Biso   1.000  H 
  H27      1.0000 0.28137  0.73745  0.73805  Biso   1.000  H 
  H28      1.0000 0.83267  0.30795  0.72653  Biso   1.000  H 
  H29      1.0000 0.04656  0.43135  0.20362  Biso   1.000  H 
  H30      1.0000 0.22472  0.80538  0.11617  Biso   1.000  H 
  H31      1.0000 0.67404  0.95178  0.64311  Biso   1.000  H 
  H32      1.0000 0.33275  0.80795  0.72667  Biso   1.000  H 
  N1       1.0000 0.08824  0.48608  0.84274  Biso   1.000  N 
  N2       1.0000 0.54749  0.97942  0.01858  Biso   1.000  N 
  N3       1.0000 0.58819  0.98609  0.84264  Biso   1.000  N 
  N4       1.0000 0.91794  0.55658  0.01028  Biso   1.000  N 
  N5       1.0000 0.45861  0.06333  0.83465  Biso   1.000  N 
  N6       1.0000 0.95875  0.56333  0.83461  Biso   1.000  N 
  N7       1.0000 0.45886  0.97947  0.51772  Biso   1.000  N 
  N8       1.0000 0.58806  0.05683  0.51296  Biso   1.000  N 
  N9       1.0000 0.04754  0.56329  0.33540  Biso   1.000  N 
  N10      1.0000 0.54746  0.06331  0.33539  Biso   1.000  N 
  N11      1.0000 0.41809  0.98599  0.34045  Biso   1.000  N 
  N12      1.0000 0.91814  0.48600  0.34048  Biso   1.000  N 
  N13      1.0000 0.95892  0.47946  0.51772  Biso   1.000  N 
  N14      1.0000 0.41784  0.05655  0.01030  Biso   1.000  N 
  N15      1.0000 0.08817  0.55678  0.51289  Biso   1.000  N 
  N16      1.0000 0.04748  0.47942  0.01860  Biso   1.000  N 
