data_image0
_cell_length_a       7.08911
_cell_length_b       34.8623
_cell_length_c       6.877
_cell_angle_alpha    90.241
_cell_angle_beta     90.0428
_cell_angle_gamma    90.003

_symmetry_space_group_name_H-M    "P 1"
_symmetry_int_tables_number       1

loop_
  _symmetry_equiv_pos_as_xyz
  'x, y, z'

loop_
  _atom_site_label
  _atom_site_occupancy
  _atom_site_fract_x
  _atom_site_fract_y
  _atom_site_fract_z
  _atom_site_thermal_displace_type
  _atom_site_B_iso_or_equiv
  _atom_site_type_symbol
  C1       1.0000 0.25727  0.11606  0.90259  Biso   1.000  C 
  C2       1.0000 0.24871  0.42728  0.95210  Biso   1.000  C 
  C3       1.0000 0.77246  0.23064  0.41929  Biso   1.000  C 
  C4       1.0000 0.27260  0.73062  0.41933  Biso   1.000  C 
  C5       1.0000 0.36025  0.94647  0.59582  Biso   1.000  C 
  C6       1.0000 0.72348  0.65579  0.90715  Biso   1.000  C 
  C7       1.0000 0.22337  0.19084  0.91127  Biso   1.000  C 
  C8       1.0000 0.67900  0.79194  0.08473  Biso   1.000  C 
  C9       1.0000 0.16136  0.25235  0.07629  Biso   1.000  C 
  C10      1.0000 0.24858  0.61545  0.40242  Biso   1.000  C 
  C11      1.0000 0.74858  0.11547  0.40243  Biso   1.000  C 
  C12      1.0000 0.14367  0.59593  0.25805  Biso   1.000  C 
  C13      1.0000 0.64370  0.09594  0.25804  Biso   1.000  C 
  C14      1.0000 0.66143  0.75236  0.07628  Biso   1.000  C 
  C15      1.0000 0.23684  0.23129  0.91834  Biso   1.000  C 
  C16      1.0000 0.27407  0.58765  0.54890  Biso   1.000  C 
  C17      1.0000 0.33058  0.25150  0.76874  Biso   1.000  C 
  C18      1.0000 0.83066  0.75150  0.76874  Biso   1.000  C 
  C19      1.0000 0.34807  0.29109  0.77716  Biso   1.000  C 
  C20      1.0000 0.84817  0.79109  0.77715  Biso   1.000  C 
  C21      1.0000 0.27269  0.31213  0.93516  Biso   1.000  C 
  C22      1.0000 0.77280  0.81214  0.93515  Biso   1.000  C 
  C23      1.0000 0.28574  0.35258  0.94240  Biso   1.000  C 
  C24      1.0000 0.78587  0.85259  0.94239  Biso   1.000  C 
  C25      1.0000 0.22998  0.95448  0.30470  Biso   1.000  C 
  C26      1.0000 0.72977  0.45451  0.30476  Biso   1.000  C 
  C27      1.0000 0.25679  0.92672  0.45114  Biso   1.000  C 
  C28      1.0000 0.75654  0.42674  0.45119  Biso   1.000  C 
  C29      1.0000 0.22267  0.85194  0.44233  Biso   1.000  C 
  C30      1.0000 0.77408  0.08766  0.54890  Biso   1.000  C 
  C31      1.0000 0.22346  0.15579  0.90713  Biso   1.000  C 
  C32      1.0000 0.74881  0.92729  0.95205  Biso   1.000  C 
  C33      1.0000 0.72341  0.69085  0.91130  Biso   1.000  C 
  C34      1.0000 0.64388  0.94679  0.09628  Biso   1.000  C 
  C35      1.0000 0.17890  0.29193  0.08474  Biso   1.000  C 
  C36      1.0000 0.73690  0.73130  0.91834  Biso   1.000  C 
  C37      1.0000 0.72239  0.35196  0.44231  Biso   1.000  C 
  C38      1.0000 0.28461  0.38764  0.94727  Biso   1.000  C 
  C39      1.0000 0.86008  0.44649  0.59585  Biso   1.000  C 
  C40      1.0000 0.78472  0.88765  0.94723  Biso   1.000  C 
  C41      1.0000 0.77425  0.95509  0.80559  Biso   1.000  C 
  C42      1.0000 0.27413  0.45508  0.80562  Biso   1.000  C 
  C43      1.0000 0.28570  0.69016  0.41215  Biso   1.000  C 
  C44      1.0000 0.66188  0.29041  0.27690  Biso   1.000  C 
  C45      1.0000 0.16210  0.79039  0.27695  Biso   1.000  C 
  C46      1.0000 0.67966  0.25083  0.26878  Biso   1.000  C 
  C47      1.0000 0.17982  0.75081  0.26883  Biso   1.000  C 
  C48      1.0000 0.14375  0.44678  0.09630  Biso   1.000  C 
  C49      1.0000 0.78438  0.15512  0.40736  Biso   1.000  C 
  C50      1.0000 0.84665  0.25175  0.57786  Biso   1.000  C 
  C51      1.0000 0.34678  0.75172  0.57791  Biso   1.000  C 
  C52      1.0000 0.82893  0.29133  0.58594  Biso   1.000  C 
  C53      1.0000 0.32912  0.79130  0.58599  Biso   1.000  C 
  C54      1.0000 0.73609  0.31151  0.43546  Biso   1.000  C 
  C55      1.0000 0.86042  0.59627  0.75806  Biso   1.000  C 
  C56      1.0000 0.36044  0.09627  0.75804  Biso   1.000  C 
  C57      1.0000 0.75725  0.61607  0.90259  Biso   1.000  C 
  C58      1.0000 0.78562  0.19018  0.41213  Biso   1.000  C 
  C59      1.0000 0.23633  0.81149  0.43551  Biso   1.000  C 
  C60      1.0000 0.73036  0.58834  0.04911  Biso   1.000  C 
  C61      1.0000 0.23038  0.08833  0.04909  Biso   1.000  C 
  C62      1.0000 0.22281  0.88700  0.44642  Biso   1.000  C 
  C63      1.0000 0.72254  0.38702  0.44643  Biso   1.000  C 
  C64      1.0000 0.28446  0.65510  0.40734  Biso   1.000  C 
  Co1      1.0000 0.45638  0.02137  0.17703  Biso   1.000  Co
  Co2      1.0000 0.95622  0.52137  0.17705  Biso   1.000  Co
  Co3      1.0000 0.04415  0.52137  0.67715  Biso   1.000  Co
  Co4      1.0000 0.54424  0.02137  0.67708  Biso   1.000  Co
  H1       1.0000 0.66112  0.59138  0.18916  Biso   1.000  H 
  H2       1.0000 0.41113  0.10693  0.61955  Biso   1.000  H 
  H3       1.0000 0.62140  0.23495  0.14580  Biso   1.000  H 
  H4       1.0000 0.84397  0.09048  0.68881  Biso   1.000  H 
  H5       1.0000 0.91113  0.60693  0.61957  Biso   1.000  H 
  H6       1.0000 0.34394  0.45224  0.66574  Biso   1.000  H 
  H7       1.0000 0.41099  0.93582  0.73442  Biso   1.000  H 
  H8       1.0000 0.38730  0.80718  0.70904  Biso   1.000  H 
  H9       1.0000 0.09349  0.43604  0.23481  Biso   1.000  H 
  H10      1.0000 0.09045  0.80558  0.16031  Biso   1.000  H 
  H11      1.0000 0.84403  0.95225  0.66571  Biso   1.000  H 
  H12      1.0000 0.11978  0.30779  0.20725  Biso   1.000  H 
  H13      1.0000 0.91813  0.23655  0.69463  Biso   1.000  H 
  H14      1.0000 0.41826  0.73651  0.69465  Biso   1.000  H 
  H15      1.0000 0.88707  0.30721  0.70899  Biso   1.000  H 
  H16      1.0000 0.12157  0.73493  0.14584  Biso   1.000  H 
  H17      1.0000 0.16118  0.09137  0.18916  Biso   1.000  H 
  H18      1.0000 0.42035  0.30634  0.66118  Biso   1.000  H 
  H19      1.0000 0.59365  0.93605  0.23479  Biso   1.000  H 
  H20      1.0000 0.91085  0.43583  0.73441  Biso   1.000  H 
  H21      1.0000 0.61987  0.80780  0.20724  Biso   1.000  H 
  H22      1.0000 0.59337  0.10668  0.11949  Biso   1.000  H 
  H23      1.0000 0.66017  0.45154  0.16474  Biso   1.000  H 
  H24      1.0000 0.16046  0.95150  0.16465  Biso   1.000  H 
  H25      1.0000 0.08889  0.23711  0.19213  Biso   1.000  H 
  H26      1.0000 0.88972  0.73564  0.64620  Biso   1.000  H 
  H27      1.0000 0.38962  0.23564  0.64619  Biso   1.000  H 
  H28      1.0000 0.58898  0.73712  0.19215  Biso   1.000  H 
  H29      1.0000 0.34395  0.59046  0.68883  Biso   1.000  H 
  H30      1.0000 0.59019  0.30560  0.16025  Biso   1.000  H 
  H31      1.0000 0.92046  0.80634  0.66117  Biso   1.000  H 
  H32      1.0000 0.09336  0.60667  0.11951  Biso   1.000  H 
  N1       1.0000 0.31643  0.98755  0.35617  Biso   1.000  N 
  N2       1.0000 0.18561  0.48792  0.85670  Biso   1.000  N 
  N3       1.0000 0.39655  0.98248  0.53658  Biso   1.000  N 
  N4       1.0000 0.31649  0.05522  0.99774  Biso   1.000  N 
  N5       1.0000 0.89643  0.48249  0.53662  Biso   1.000  N 
  N6       1.0000 0.81630  0.48757  0.35623  Biso   1.000  N 
  N7       1.0000 0.60547  0.06004  0.31751  Biso   1.000  N 
  N8       1.0000 0.39646  0.06025  0.81735  Biso   1.000  N 
  N9       1.0000 0.81643  0.55523  0.99776  Biso   1.000  N 
  N10      1.0000 0.68572  0.98793  0.85667  Biso   1.000  N 
  N11      1.0000 0.60551  0.98269  0.03673  Biso   1.000  N 
  N12      1.0000 0.18563  0.55479  0.49769  Biso   1.000  N 
  N13      1.0000 0.68572  0.05480  0.49767  Biso   1.000  N 
  N14      1.0000 0.10539  0.56003  0.31753  Biso   1.000  N 
  N15      1.0000 0.89644  0.56026  0.81738  Biso   1.000  N 
  N16      1.0000 0.10536  0.48268  0.03675  Biso   1.000  N 
