data_image0
_cell_length_a       19.3318
_cell_length_b       31.448
_cell_length_c       6.47907
_cell_angle_alpha    100.395
_cell_angle_beta     90.2699
_cell_angle_gamma    90.0127

_symmetry_space_group_name_H-M    "P 1"
_symmetry_int_tables_number       1

loop_
  _symmetry_equiv_pos_as_xyz
  'x, y, z'

loop_
  _atom_site_label
  _atom_site_occupancy
  _atom_site_fract_x
  _atom_site_fract_y
  _atom_site_fract_z
  _atom_site_thermal_displace_type
  _atom_site_B_iso_or_equiv
  _atom_site_type_symbol
  C1       1.0000 0.38859  0.11945  0.93389  Biso   1.000  C 
  C2       1.0000 0.81996  0.35097  0.41565  Biso   1.000  C 
  C3       1.0000 0.15504  0.38473  0.91770  Biso   1.000  C 
  C4       1.0000 0.93896  0.44095  0.56461  Biso   1.000  C 
  C5       1.0000 0.65520  0.88480  0.91774  Biso   1.000  C 
  C6       1.0000 0.65518  0.15796  0.43895  Biso   1.000  C 
  C7       1.0000 0.15525  0.65796  0.43931  Biso   1.000  C 
  C8       1.0000 0.62136  0.95265  0.77979  Biso   1.000  C 
  C9       1.0000 0.12130  0.45262  0.77983  Biso   1.000  C 
  C10      1.0000 0.18559  0.69198  0.43737  Biso   1.000  C 
  C11      1.0000 0.74319  0.29171  0.25285  Biso   1.000  C 
  C12      1.0000 0.24319  0.79171  0.25298  Biso   1.000  C 
  C13      1.0000 0.71061  0.25267  0.25862  Biso   1.000  C 
  C14      1.0000 0.21063  0.75267  0.25871  Biso   1.000  C 
  C15      1.0000 0.06669  0.44076  0.06578  Biso   1.000  C 
  C16      1.0000 0.68554  0.19198  0.43723  Biso   1.000  C 
  C17      1.0000 0.76221  0.25128  0.60018  Biso   1.000  C 
  C18      1.0000 0.26225  0.75127  0.60026  Biso   1.000  C 
  C19      1.0000 0.79478  0.29032  0.59441  Biso   1.000  C 
  C20      1.0000 0.29483  0.79031  0.59451  Biso   1.000  C 
  C21      1.0000 0.78604  0.31137  0.42064  Biso   1.000  C 
  C22      1.0000 0.93967  0.60184  0.78799  Biso   1.000  C 
  C23      1.0000 0.43964  0.10186  0.78800  Biso   1.000  C 
  C24      1.0000 0.88859  0.61945  0.93376  Biso   1.000  C 
  C25      1.0000 0.28606  0.81136  0.42074  Biso   1.000  C 
  C26      1.0000 0.88514  0.58993  0.07396  Biso   1.000  C 
  C27      1.0000 0.38514  0.08991  0.07396  Biso   1.000  C 
  C28      1.0000 0.35048  0.88493  0.41399  Biso   1.000  C 
  C29      1.0000 0.85040  0.38497  0.41405  Biso   1.000  C 
  C30      1.0000 0.61796  0.92320  0.92032  Biso   1.000  C 
  C31      1.0000 0.56682  0.94081  0.06589  Biso   1.000  C 
  C32      1.0000 0.78704  0.73156  0.93276  Biso   1.000  C 
  C33      1.0000 0.11783  0.42314  0.92025  Biso   1.000  C 
  C34      1.0000 0.35143  0.15791  0.93731  Biso   1.000  C 
  C35      1.0000 0.71939  0.23161  0.43233  Biso   1.000  C 
  C36      1.0000 0.21943  0.73161  0.43242  Biso   1.000  C 
  C37      1.0000 0.43900  0.94093  0.56447  Biso   1.000  C 
  C38      1.0000 0.85145  0.65791  0.93708  Biso   1.000  C 
  C39      1.0000 0.32096  0.19191  0.93641  Biso   1.000  C 
  C40      1.0000 0.12144  0.59011  0.57698  Biso   1.000  C 
  C41      1.0000 0.71143  0.78978  0.09605  Biso   1.000  C 
  C42      1.0000 0.24413  0.25071  0.10046  Biso   1.000  C 
  C43      1.0000 0.11805  0.61952  0.43612  Biso   1.000  C 
  C44      1.0000 0.61797  0.11952  0.43573  Biso   1.000  C 
  C45      1.0000 0.06696  0.60179  0.28901  Biso   1.000  C 
  C46      1.0000 0.56686  0.10178  0.28870  Biso   1.000  C 
  C47      1.0000 0.74430  0.75077  0.10041  Biso   1.000  C 
  C48      1.0000 0.28687  0.23151  0.93280  Biso   1.000  C 
  C49      1.0000 0.62137  0.09012  0.57667  Biso   1.000  C 
  C50      1.0000 0.29524  0.25302  0.76066  Biso   1.000  C 
  C51      1.0000 0.79545  0.75307  0.76065  Biso   1.000  C 
  C52      1.0000 0.26234  0.29201  0.75627  Biso   1.000  C 
  C53      1.0000 0.76256  0.79207  0.75622  Biso   1.000  C 
  C54      1.0000 0.21957  0.31119  0.92391  Biso   1.000  C 
  C55      1.0000 0.71978  0.81126  0.92381  Biso   1.000  C 
  C56      1.0000 0.18545  0.35075  0.91979  Biso   1.000  C 
  C57      1.0000 0.68564  0.85081  0.91967  Biso   1.000  C 
  C58      1.0000 0.21124  0.28971  0.09614  Biso   1.000  C 
  C59      1.0000 0.38467  0.95270  0.27642  Biso   1.000  C 
  C60      1.0000 0.88462  0.45277  0.27668  Biso   1.000  C 
  C61      1.0000 0.38784  0.92331  0.41733  Biso   1.000  C 
  C62      1.0000 0.88777  0.42336  0.41751  Biso   1.000  C 
  C63      1.0000 0.32001  0.85095  0.41569  Biso   1.000  C 
  C64      1.0000 0.82105  0.69194  0.93628  Biso   1.000  C 
  Co1      1.0000 0.52427  0.02132  0.67687  Biso   1.000  Co
  Co2      1.0000 0.02428  0.52132  0.67699  Biso   1.000  Co
  Co3      1.0000 0.48217  0.02126  0.17635  Biso   1.000  Co
  Co4      1.0000 0.98222  0.52128  0.17653  Biso   1.000  Co
  H1       1.0000 0.67854  0.80427  0.22606  Biso   1.000  H 
  H2       1.0000 0.54774  0.11370  0.15197  Biso   1.000  H 
  H3       1.0000 0.23721  0.23445  0.23404  Biso   1.000  H 
  H4       1.0000 0.35332  0.09103  0.21245  Biso   1.000  H 
  H5       1.0000 0.85280  0.45161  0.13726  Biso   1.000  H 
  H6       1.0000 0.35287  0.95151  0.13697  Biso   1.000  H 
  H7       1.0000 0.54771  0.92883  0.20195  Biso   1.000  H 
  H8       1.0000 0.04786  0.61373  0.15231  Biso   1.000  H 
  H9       1.0000 0.26927  0.30828  0.62276  Biso   1.000  H 
  H10      1.0000 0.82836  0.73860  0.63062  Biso   1.000  H 
  H11      1.0000 0.32817  0.23856  0.63067  Biso   1.000  H 
  H12      1.0000 0.73735  0.73452  0.23394  Biso   1.000  H 
  H13      1.0000 0.15325  0.59137  0.71648  Biso   1.000  H 
  H14      1.0000 0.73592  0.30761  0.11810  Biso   1.000  H 
  H15      1.0000 0.76950  0.80832  0.62266  Biso   1.000  H 
  H16      1.0000 0.95793  0.42898  0.70139  Biso   1.000  H 
  H17      1.0000 0.85331  0.59108  0.21245  Biso   1.000  H 
  H18      1.0000 0.76946  0.23538  0.73497  Biso   1.000  H 
  H19      1.0000 0.45877  0.11392  0.65216  Biso   1.000  H 
  H20      1.0000 0.67762  0.23781  0.12853  Biso   1.000  H 
  H21      1.0000 0.65319  0.09140  0.71615  Biso   1.000  H 
  H22      1.0000 0.45796  0.92898  0.70131  Biso   1.000  H 
  H23      1.0000 0.95883  0.61389  0.65213  Biso   1.000  H 
  H24      1.0000 0.15316  0.45145  0.64140  Biso   1.000  H 
  H25      1.0000 0.17764  0.73781  0.12861  Biso   1.000  H 
  H26      1.0000 0.26951  0.73536  0.73501  Biso   1.000  H 
  H27      1.0000 0.82778  0.30519  0.72451  Biso   1.000  H 
  H28      1.0000 0.04751  0.42874  0.20168  Biso   1.000  H 
  H29      1.0000 0.23592  0.80764  0.11828  Biso   1.000  H 
  H30      1.0000 0.65320  0.95149  0.64132  Biso   1.000  H 
  H31      1.0000 0.17837  0.30420  0.22622  Biso   1.000  H 
  H32      1.0000 0.32782  0.80518  0.72459  Biso   1.000  H 
  N1       1.0000 0.96414  0.56501  0.83903  Biso   1.000  N 
  N2       1.0000 0.07610  0.55765  0.51675  Biso   1.000  N 
  N3       1.0000 0.54229  0.97759  0.01446  Biso   1.000  N 
  N4       1.0000 0.57598  0.98502  0.83872  Biso   1.000  N 
  N5       1.0000 0.93044  0.55753  0.01465  Biso   1.000  N 
  N6       1.0000 0.46409  0.06500  0.83883  Biso   1.000  N 
  N7       1.0000 0.07597  0.48501  0.83881  Biso   1.000  N 
  N8       1.0000 0.04245  0.56499  0.33988  Biso   1.000  N 
  N9       1.0000 0.54235  0.06499  0.33968  Biso   1.000  N 
  N10      1.0000 0.43018  0.98506  0.33664  Biso   1.000  N 
  N11      1.0000 0.93016  0.48511  0.33690  Biso   1.000  N 
  N12      1.0000 0.96375  0.47769  0.51374  Biso   1.000  N 
  N13      1.0000 0.43040  0.05750  0.01445  Biso   1.000  N 
  N14      1.0000 0.46376  0.97767  0.51355  Biso   1.000  N 
  N15      1.0000 0.57603  0.05766  0.51654  Biso   1.000  N 
  N16      1.0000 0.04223  0.47757  0.01447  Biso   1.000  N 
