data_image0
_cell_length_a       11.7253
_cell_length_b       34.3708
_cell_length_c       6.67712
_cell_angle_alpha    94.0932
_cell_angle_beta     90.4833
_cell_angle_gamma    90.0013

_symmetry_space_group_name_H-M    "P 1"
_symmetry_int_tables_number       1

loop_
  _symmetry_equiv_pos_as_xyz
  'x, y, z'

loop_
  _atom_site_label
  _atom_site_occupancy
  _atom_site_fract_x
  _atom_site_fract_y
  _atom_site_fract_z
  _atom_site_thermal_displace_type
  _atom_site_B_iso_or_equiv
  _atom_site_type_symbol
  C1       1.0000 0.34318  0.11590  0.91641  Biso   1.000  C 
  C2       1.0000 0.78580  0.35297  0.42662  Biso   1.000  C 
  C3       1.0000 0.19899  0.38776  0.93274  Biso   1.000  C 
  C4       1.0000 0.91440  0.44580  0.58199  Biso   1.000  C 
  C5       1.0000 0.69934  0.88784  0.93294  Biso   1.000  C 
  C6       1.0000 0.69919  0.15503  0.42556  Biso   1.000  C 
  C7       1.0000 0.19937  0.65501  0.42589  Biso   1.000  C 
  C8       1.0000 0.67670  0.95465  0.79485  Biso   1.000  C 
  C9       1.0000 0.17661  0.45460  0.79472  Biso   1.000  C 
  C10      1.0000 0.22043  0.68985  0.42726  Biso   1.000  C 
  C11      1.0000 0.71844  0.29088  0.25923  Biso   1.000  C 
  C12      1.0000 0.21838  0.79086  0.25968  Biso   1.000  C 
  C13      1.0000 0.70408  0.25085  0.25925  Biso   1.000  C 
  C14      1.0000 0.20405  0.75082  0.25976  Biso   1.000  C 
  C15      1.0000 0.09152  0.44570  0.08423  Biso   1.000  C 
  C16      1.0000 0.72032  0.18987  0.42676  Biso   1.000  C 
  C17      1.0000 0.78779  0.25196  0.59396  Biso   1.000  C 
  C18      1.0000 0.28780  0.75195  0.59445  Biso   1.000  C 
  C19      1.0000 0.80211  0.29200  0.59395  Biso   1.000  C 
  C20      1.0000 0.30210  0.79199  0.59439  Biso   1.000  C 
  C21      1.0000 0.76788  0.31232  0.42655  Biso   1.000  C 
  C22      1.0000 0.91469  0.59704  0.77020  Biso   1.000  C 
  C23      1.0000 0.41430  0.09699  0.77023  Biso   1.000  C 
  C24      1.0000 0.84361  0.61598  0.91637  Biso   1.000  C 
  C25      1.0000 0.26785  0.81231  0.42694  Biso   1.000  C 
  C26      1.0000 0.82934  0.58809  0.05942  Biso   1.000  C 
  C27      1.0000 0.32902  0.08800  0.05946  Biso   1.000  C 
  C28      1.0000 0.30675  0.88781  0.42828  Biso   1.000  C 
  C29      1.0000 0.80677  0.38782  0.42808  Biso   1.000  C 
  C30      1.0000 0.66260  0.92677  0.93810  Biso   1.000  C 
  C31      1.0000 0.59159  0.94572  0.08433  Biso   1.000  C 
  C32      1.0000 0.76843  0.73049  0.92500  Biso   1.000  C 
  C33      1.0000 0.16245  0.42673  0.93794  Biso   1.000  C 
  C34      1.0000 0.30657  0.15486  0.92158  Biso   1.000  C 
  C35      1.0000 0.73831  0.23052  0.42664  Biso   1.000  C 
  C36      1.0000 0.23833  0.73050  0.42715  Biso   1.000  C 
  C37      1.0000 0.41440  0.94579  0.58209  Biso   1.000  C 
  C38      1.0000 0.80713  0.65495  0.92146  Biso   1.000  C 
  C39      1.0000 0.28565  0.18971  0.92356  Biso   1.000  C 
  C40      1.0000 0.17679  0.58825  0.56445  Biso   1.000  C 
  C41      1.0000 0.70453  0.79159  0.09402  Biso   1.000  C 
  C42      1.0000 0.21826  0.25145  0.09211  Biso   1.000  C 
  C43      1.0000 0.16274  0.61605  0.42046  Biso   1.000  C 
  C44      1.0000 0.66253  0.11608  0.42030  Biso   1.000  C 
  C45      1.0000 0.09184  0.59700  0.27215  Biso   1.000  C 
  C46      1.0000 0.59165  0.09701  0.27204  Biso   1.000  C 
  C47      1.0000 0.71896  0.75153  0.09202  Biso   1.000  C 
  C48      1.0000 0.26770  0.23038  0.92517  Biso   1.000  C 
  C49      1.0000 0.67657  0.08830  0.56442  Biso   1.000  C 
  C50      1.0000 0.30187  0.25109  0.76006  Biso   1.000  C 
  C51      1.0000 0.80268  0.75123  0.76007  Biso   1.000  C 
  C52      1.0000 0.28750  0.29116  0.76196  Biso   1.000  C 
  C53      1.0000 0.78827  0.79129  0.76210  Biso   1.000  C 
  C54      1.0000 0.23804  0.31224  0.92890  Biso   1.000  C 
  C55      1.0000 0.73871  0.81234  0.92904  Biso   1.000  C 
  C56      1.0000 0.22006  0.35291  0.93052  Biso   1.000  C 
  C57      1.0000 0.72058  0.85300  0.93075  Biso   1.000  C 
  C58      1.0000 0.20388  0.29151  0.09398  Biso   1.000  C 
  C59      1.0000 0.32928  0.95460  0.29002  Biso   1.000  C 
  C60      1.0000 0.82931  0.45462  0.28990  Biso   1.000  C 
  C61      1.0000 0.34338  0.92677  0.43385  Biso   1.000  C 
  C62      1.0000 0.84339  0.42679  0.43371  Biso   1.000  C 
  C63      1.0000 0.28578  0.85296  0.42693  Biso   1.000  C 
  C64      1.0000 0.78633  0.68981  0.92334  Biso   1.000  C 
  Co1      1.0000 0.53383  0.02145  0.67767  Biso   1.000  Co
  Co2      1.0000 0.03391  0.52144  0.67764  Biso   1.000  Co
  Co3      1.0000 0.47231  0.02134  0.17673  Biso   1.000  Co
  Co4      1.0000 0.97240  0.52136  0.17667  Biso   1.000  Co
  H1       1.0000 0.66595  0.80751  0.22329  Biso   1.000  H 
  H2       1.0000 0.55931  0.10782  0.13369  Biso   1.000  H 
  H3       1.0000 0.19155  0.23585  0.22028  Biso   1.000  H 
  H4       1.0000 0.28242  0.09041  0.19960  Biso   1.000  H 
  H5       1.0000 0.78278  0.45213  0.14831  Biso   1.000  H 
  H6       1.0000 0.28274  0.95211  0.14844  Biso   1.000  H 
  H7       1.0000 0.55919  0.93482  0.22147  Biso   1.000  H 
  H8       1.0000 0.05952  0.60784  0.13383  Biso   1.000  H 
  H9       1.0000 0.31424  0.30676  0.63375  Biso   1.000  H 
  H10      1.0000 0.84128  0.73531  0.63080  Biso   1.000  H 
  H11      1.0000 0.34041  0.23515  0.63078  Biso   1.000  H 
  H12      1.0000 0.69220  0.73590  0.22009  Biso   1.000  H 
  H13      1.0000 0.22320  0.59078  0.70615  Biso   1.000  H 
  H14      1.0000 0.69168  0.30617  0.12927  Biso   1.000  H 
  H15      1.0000 0.81504  0.80692  0.63404  Biso   1.000  H 
  H16      1.0000 0.94675  0.43493  0.72017  Biso   1.000  H 
  H17      1.0000 0.78273  0.59051  0.19954  Biso   1.000  H 
  H18      1.0000 0.81457  0.23666  0.72390  Biso   1.000  H 
  H19      1.0000 0.44677  0.10792  0.63321  Biso   1.000  H 
  H20      1.0000 0.66557  0.23460  0.12970  Biso   1.000  H 
  H21      1.0000 0.72296  0.09086  0.70614  Biso   1.000  H 
  H22      1.0000 0.44676  0.93492  0.72028  Biso   1.000  H 
  H23      1.0000 0.94724  0.60796  0.63321  Biso   1.000  H 
  H24      1.0000 0.22306  0.45213  0.65444  Biso   1.000  H 
  H25      1.0000 0.16553  0.73457  0.13027  Biso   1.000  H 
  H26      1.0000 0.31462  0.73666  0.72439  Biso   1.000  H 
  H27      1.0000 0.84063  0.30823  0.72352  Biso   1.000  H 
  H28      1.0000 0.05912  0.43480  0.22139  Biso   1.000  H 
  H29      1.0000 0.19160  0.80614  0.12972  Biso   1.000  H 
  H30      1.0000 0.72320  0.95220  0.65462  Biso   1.000  H 
  H31      1.0000 0.16537  0.30746  0.22323  Biso   1.000  H 
  H32      1.0000 0.34065  0.80824  0.72391  Biso   1.000  H 
  N1       1.0000 0.94132  0.56118  0.82479  Biso   1.000  N 
  N2       1.0000 0.11753  0.55565  0.50674  Biso   1.000  N 
  N3       1.0000 0.56488  0.98157  0.02969  Biso   1.000  N 
  N4       1.0000 0.61739  0.98720  0.85104  Biso   1.000  N 
  N5       1.0000 0.88866  0.55553  0.00326  Biso   1.000  N 
  N6       1.0000 0.44108  0.06115  0.82480  Biso   1.000  N 
  N7       1.0000 0.11741  0.48717  0.85095  Biso   1.000  N 
  N8       1.0000 0.06511  0.56117  0.32635  Biso   1.000  N 
  N9       1.0000 0.56494  0.06119  0.32635  Biso   1.000  N 
  N10      1.0000 0.38861  0.98719  0.34778  Biso   1.000  N 
  N11      1.0000 0.88864  0.48721  0.34770  Biso   1.000  N 
  N12      1.0000 0.94116  0.48164  0.52793  Biso   1.000  N 
  N13      1.0000 0.38845  0.05547  0.00327  Biso   1.000  N 
  N14      1.0000 0.44116  0.98162  0.52799  Biso   1.000  N 
  N15      1.0000 0.61735  0.05569  0.50677  Biso   1.000  N 
  N16      1.0000 0.06491  0.48155  0.02962  Biso   1.000  N 
