data_image0
_cell_length_a       24.8687
_cell_length_b       27.4095
_cell_length_c       6.62619
_cell_angle_alpha    101.67
_cell_angle_beta     89.9771
_cell_angle_gamma    89.9973

_symmetry_space_group_name_H-M    "P 1"
_symmetry_int_tables_number       1

loop_
  _symmetry_equiv_pos_as_xyz
  'x, y, z'

loop_
  _atom_site_label
  _atom_site_occupancy
  _atom_site_fract_x
  _atom_site_fract_y
  _atom_site_fract_z
  _atom_site_thermal_displace_type
  _atom_site_B_iso_or_equiv
  _atom_site_type_symbol
  C1       1.0000 0.39970  0.12344  0.93260  Biso   1.000  C 
  C2       1.0000 0.71482  0.23294  0.42893  Biso   1.000  C 
  C3       1.0000 0.21496  0.73289  0.42952  Biso   1.000  C 
  C4       1.0000 0.44112  0.93483  0.56415  Biso   1.000  C 
  C5       1.0000 0.86221  0.66179  0.93378  Biso   1.000  C 
  C6       1.0000 0.32917  0.19466  0.93054  Biso   1.000  C 
  C7       1.0000 0.10106  0.59192  0.57707  Biso   1.000  C 
  C8       1.0000 0.71807  0.78551  0.09289  Biso   1.000  C 
  C9       1.0000 0.25484  0.24747  0.09378  Biso   1.000  C 
  C10      1.0000 0.10646  0.62340  0.43364  Biso   1.000  C 
  C11      1.0000 0.60636  0.12342  0.43283  Biso   1.000  C 
  C12      1.0000 0.06492  0.60770  0.28995  Biso   1.000  C 
  C13      1.0000 0.56479  0.10773  0.28933  Biso   1.000  C 
  C14      1.0000 0.75523  0.74792  0.09519  Biso   1.000  C 
  C15      1.0000 0.29121  0.23294  0.92839  Biso   1.000  C 
  C16      1.0000 0.60100  0.09195  0.57634  Biso   1.000  C 
  C17      1.0000 0.28866  0.25764  0.76074  Biso   1.000  C 
  C18      1.0000 0.78920  0.75805  0.76230  Biso   1.000  C 
  C19      1.0000 0.25142  0.29518  0.75856  Biso   1.000  C 
  C20      1.0000 0.75204  0.79565  0.76000  Biso   1.000  C 
  C21      1.0000 0.21505  0.30971  0.92397  Biso   1.000  C 
  C22      1.0000 0.71563  0.81021  0.92523  Biso   1.000  C 
  C23      1.0000 0.17707  0.34798  0.92208  Biso   1.000  C 
  C24      1.0000 0.67764  0.84846  0.92305  Biso   1.000  C 
  C25      1.0000 0.40499  0.95059  0.27701  Biso   1.000  C 
  C26      1.0000 0.90488  0.45071  0.27792  Biso   1.000  C 
  C27      1.0000 0.39955  0.91916  0.42060  Biso   1.000  C 
  C28      1.0000 0.89942  0.41928  0.42151  Biso   1.000  C 
  C29      1.0000 0.32884  0.84808  0.42240  Biso   1.000  C 
  C30      1.0000 0.82948  0.69498  0.93216  Biso   1.000  C 
  C31      1.0000 0.36195  0.16151  0.93208  Biso   1.000  C 
  C32      1.0000 0.10637  0.41914  0.92117  Biso   1.000  C 
  C33      1.0000 0.21761  0.28501  0.09160  Biso   1.000  C 
  C34      1.0000 0.56514  0.93507  0.06485  Biso   1.000  C 
  C35      1.0000 0.79162  0.73333  0.92992  Biso   1.000  C 
  C36      1.0000 0.82862  0.34826  0.42306  Biso   1.000  C 
  C37      1.0000 0.14418  0.38109  0.92126  Biso   1.000  C 
  C38      1.0000 0.94100  0.43492  0.56505  Biso   1.000  C 
  C39      1.0000 0.64467  0.88148  0.92177  Biso   1.000  C 
  C40      1.0000 0.64415  0.16145  0.43242  Biso   1.000  C 
  C41      1.0000 0.60119  0.95070  0.77719  Biso   1.000  C 
  C42      1.0000 0.10095  0.45055  0.77753  Biso   1.000  C 
  C43      1.0000 0.17706  0.69457  0.43185  Biso   1.000  C 
  C44      1.0000 0.75432  0.29543  0.25970  Biso   1.000  C 
  C45      1.0000 0.25453  0.79520  0.25949  Biso   1.000  C 
  C46      1.0000 0.71721  0.25778  0.26168  Biso   1.000  C 
  C47      1.0000 0.21738  0.75760  0.26191  Biso   1.000  C 
  C48      1.0000 0.06487  0.43490  0.06507  Biso   1.000  C 
  C49      1.0000 0.14425  0.66145  0.43336  Biso   1.000  C 
  C50      1.0000 0.75122  0.24743  0.59412  Biso   1.000  C 
  C51      1.0000 0.25136  0.74746  0.59465  Biso   1.000  C 
  C52      1.0000 0.78832  0.28509  0.59220  Biso   1.000  C 
  C53      1.0000 0.28849  0.78507  0.59228  Biso   1.000  C 
  C54      1.0000 0.79071  0.30993  0.42494  Biso   1.000  C 
  C55      1.0000 0.94139  0.60783  0.79022  Biso   1.000  C 
  C56      1.0000 0.44130  0.10769  0.78912  Biso   1.000  C 
  C57      1.0000 0.89988  0.62365  0.93402  Biso   1.000  C 
  C58      1.0000 0.60672  0.91939  0.92120  Biso   1.000  C 
  C59      1.0000 0.29092  0.80978  0.42464  Biso   1.000  C 
  C60      1.0000 0.90515  0.59216  0.07743  Biso   1.000  C 
  C61      1.0000 0.40497  0.09197  0.07612  Biso   1.000  C 
  C62      1.0000 0.36171  0.88116  0.42102  Biso   1.000  C 
  C63      1.0000 0.86152  0.38133  0.42187  Biso   1.000  C 
  C64      1.0000 0.67695  0.19458  0.43091  Biso   1.000  C 
  Co1      1.0000 0.98960  0.52133  0.17770  Biso   1.000  Co
  Co2      1.0000 0.48961  0.02131  0.17685  Biso   1.000  Co
  Co3      1.0000 0.51641  0.02122  0.67668  Biso   1.000  Co
  Co4      1.0000 0.01640  0.52127  0.67739  Biso   1.000  Co
  H1       1.0000 0.45205  0.12138  0.65172  Biso   1.000  H 
  H2       1.0000 0.68932  0.24700  0.13352  Biso   1.000  H 
  H3       1.0000 0.62439  0.09130  0.71408  Biso   1.000  H 
  H4       1.0000 0.45178  0.92111  0.70156  Biso   1.000  H 
  H5       1.0000 0.95209  0.62151  0.65275  Biso   1.000  H 
  H6       1.0000 0.12427  0.45115  0.63952  Biso   1.000  H 
  H7       1.0000 0.18949  0.74676  0.13377  Biso   1.000  H 
  H8       1.0000 0.31639  0.79590  0.72038  Biso   1.000  H 
  H9       1.0000 0.81621  0.29587  0.72033  Biso   1.000  H 
  H10      1.0000 0.05424  0.42124  0.20263  Biso   1.000  H 
  H11      1.0000 0.25586  0.81401  0.12948  Biso   1.000  H 
  H12      1.0000 0.62451  0.95131  0.63919  Biso   1.000  H 
  H13      1.0000 0.18975  0.29582  0.21993  Biso   1.000  H 
  H14      1.0000 0.74990  0.22853  0.72384  Biso   1.000  H 
  H15      1.0000 0.25001  0.72865  0.72466  Biso   1.000  H 
  H16      1.0000 0.88177  0.59156  0.21534  Biso   1.000  H 
  H17      1.0000 0.55453  0.92141  0.20245  Biso   1.000  H 
  H18      1.0000 0.75069  0.81446  0.63000  Biso   1.000  H 
  H19      1.0000 0.95164  0.42120  0.70245  Biso   1.000  H 
  H20      1.0000 0.69016  0.79634  0.22104  Biso   1.000  H 
  H21      1.0000 0.55410  0.12146  0.15201  Biso   1.000  H 
  H22      1.0000 0.25629  0.22868  0.22382  Biso   1.000  H 
  H23      1.0000 0.88154  0.45138  0.14009  Biso   1.000  H 
  H24      1.0000 0.38163  0.95126  0.13922  Biso   1.000  H 
  H25      1.0000 0.38155  0.09133  0.21386  Biso   1.000  H 
  H26      1.0000 0.25000  0.31399  0.62858  Biso   1.000  H 
  H27      1.0000 0.81709  0.74721  0.63409  Biso   1.000  H 
  H28      1.0000 0.31654  0.24685  0.63244  Biso   1.000  H 
  H29      1.0000 0.75658  0.72911  0.22517  Biso   1.000  H 
  H30      1.0000 0.12441  0.59123  0.71487  Biso   1.000  H 
  H31      1.0000 0.75564  0.31433  0.12997  Biso   1.000  H 
  H32      1.0000 0.05429  0.62143  0.15257  Biso   1.000  H 
  N1       1.0000 0.53735  0.07011  0.34440  Biso   1.000  N 
  N2       1.0000 0.46861  0.97242  0.50907  Biso   1.000  N 
  N3       1.0000 0.44619  0.06024  0.02074  Biso   1.000  N 
  N4       1.0000 0.96853  0.47249  0.50994  Biso   1.000  N 
  N5       1.0000 0.94616  0.48233  0.33339  Biso   1.000  N 
  N6       1.0000 0.44623  0.98225  0.33252  Biso   1.000  N 
  N7       1.0000 0.03747  0.57007  0.34488  Biso   1.000  N 
  N8       1.0000 0.96870  0.57012  0.84505  Biso   1.000  N 
  N9       1.0000 0.46867  0.07004  0.84424  Biso   1.000  N 
  N10      1.0000 0.94627  0.56035  0.02168  Biso   1.000  N 
  N11      1.0000 0.55986  0.98229  0.83253  Biso   1.000  N 
  N12      1.0000 0.53755  0.97255  0.00941  Biso   1.000  N 
  N13      1.0000 0.05984  0.56024  0.52142  Biso   1.000  N 
  N14      1.0000 0.55977  0.06027  0.52087  Biso   1.000  N 
  N15      1.0000 0.05974  0.48226  0.83322  Biso   1.000  N 
  N16      1.0000 0.03740  0.47251  0.01002  Biso   1.000  N 
