data_image0
_cell_length_a       6.20246
_cell_length_b       34.7088
_cell_length_c       6.40557
_cell_angle_alpha    82.4044
_cell_angle_beta     89.9636
_cell_angle_gamma    90.1443

_symmetry_space_group_name_H-M    "P 1"
_symmetry_int_tables_number       1

loop_
  _symmetry_equiv_pos_as_xyz
  'x, y, z'

loop_
  _atom_site_label
  _atom_site_occupancy
  _atom_site_fract_x
  _atom_site_fract_y
  _atom_site_fract_z
  _atom_site_thermal_displace_type
  _atom_site_B_iso_or_equiv
  _atom_site_type_symbol
  C1       1.0000 0.23239  0.11770  0.84925  Biso   1.000  C 
  C2       1.0000 0.21802  0.28227  0.12709  Biso   1.000  C 
  C3       1.0000 0.73863  0.73180  0.89910  Biso   1.000  C 
  C4       1.0000 0.71913  0.35050  0.48147  Biso   1.000  C 
  C5       1.0000 0.29826  0.38487  0.00168  Biso   1.000  C 
  C6       1.0000 0.84997  0.44315  0.65261  Biso   1.000  C 
  C7       1.0000 0.79788  0.88488  0.00159  Biso   1.000  C 
  C8       1.0000 0.82122  0.95535  0.84279  Biso   1.000  C 
  C9       1.0000 0.32167  0.45534  0.84277  Biso   1.000  C 
  C10      1.0000 0.28551  0.69241  0.37135  Biso   1.000  C 
  C11      1.0000 0.70513  0.29924  0.25382  Biso   1.000  C 
  C12      1.0000 0.20502  0.79925  0.25376  Biso   1.000  C 
  C13      1.0000 0.71814  0.26040  0.22677  Biso   1.000  C 
  C14      1.0000 0.21805  0.76041  0.22672  Biso   1.000  C 
  C15      1.0000 0.15602  0.44318  0.15333  Biso   1.000  C 
  C16      1.0000 0.80048  0.15791  0.35334  Biso   1.000  C 
  C17      1.0000 0.79883  0.24366  0.59889  Biso   1.000  C 
  C18      1.0000 0.29886  0.74368  0.59880  Biso   1.000  C 
  C19      1.0000 0.78579  0.28249  0.62596  Biso   1.000  C 
  C20      1.0000 0.28580  0.78251  0.62587  Biso   1.000  C 
  C21      1.0000 0.73761  0.31098  0.45421  Biso   1.000  C 
  C22      1.0000 0.85230  0.59958  0.70165  Biso   1.000  C 
  C23      1.0000 0.35195  0.09957  0.70175  Biso   1.000  C 
  C24      1.0000 0.73264  0.61769  0.84918  Biso   1.000  C 
  C25      1.0000 0.23754  0.81099  0.45413  Biso   1.000  C 
  C26      1.0000 0.68601  0.58724  0.01182  Biso   1.000  C 
  C27      1.0000 0.18577  0.08726  0.01198  Biso   1.000  C 
  C28      1.0000 0.20540  0.88497  0.50037  Biso   1.000  C 
  C29      1.0000 0.70568  0.38497  0.50030  Biso   1.000  C 
  C30      1.0000 0.30053  0.65793  0.35324  Biso   1.000  C 
  C31      1.0000 0.65568  0.94317  0.15340  Biso   1.000  C 
  C32      1.0000 0.72107  0.69225  0.87177  Biso   1.000  C 
  C33      1.0000 0.78553  0.19239  0.37147  Biso   1.000  C 
  C34      1.0000 0.20807  0.15776  0.85333  Biso   1.000  C 
  C35      1.0000 0.77454  0.92496  0.00576  Biso   1.000  C 
  C36      1.0000 0.27495  0.42496  0.00578  Biso   1.000  C 
  C37      1.0000 0.76642  0.23192  0.39848  Biso   1.000  C 
  C38      1.0000 0.26638  0.73193  0.39841  Biso   1.000  C 
  C39      1.0000 0.34944  0.94315  0.65276  Biso   1.000  C 
  C40      1.0000 0.70822  0.65775  0.85329  Biso   1.000  C 
  C41      1.0000 0.71790  0.78227  0.12703  Biso   1.000  C 
  C42      1.0000 0.20582  0.24343  0.09972  Biso   1.000  C 
  C43      1.0000 0.27722  0.61783  0.34901  Biso   1.000  C 
  C44      1.0000 0.77706  0.11781  0.34914  Biso   1.000  C 
  C45      1.0000 0.15792  0.59963  0.20140  Biso   1.000  C 
  C46      1.0000 0.65772  0.09962  0.20153  Biso   1.000  C 
  C47      1.0000 0.70579  0.74343  0.09969  Biso   1.000  C 
  C48      1.0000 0.23857  0.23180  0.89913  Biso   1.000  C 
  C49      1.0000 0.22098  0.19225  0.87180  Biso   1.000  C 
  C50      1.0000 0.28620  0.26040  0.72749  Biso   1.000  C 
  C51      1.0000 0.78625  0.76039  0.72746  Biso   1.000  C 
  C52      1.0000 0.29847  0.29924  0.75487  Biso   1.000  C 
  C53      1.0000 0.79843  0.79924  0.75482  Biso   1.000  C 
  C54      1.0000 0.26579  0.31087  0.95548  Biso   1.000  C 
  C55      1.0000 0.76568  0.81086  0.95543  Biso   1.000  C 
  C56      1.0000 0.28408  0.35040  0.98297  Biso   1.000  C 
  C57      1.0000 0.78387  0.85040  0.98289  Biso   1.000  C 
  C58      1.0000 0.82326  0.08739  0.51175  Biso   1.000  C 
  C59      1.0000 0.18398  0.95551  0.34256  Biso   1.000  C 
  C60      1.0000 0.68434  0.45551  0.34250  Biso   1.000  C 
  C61      1.0000 0.22982  0.92504  0.50500  Biso   1.000  C 
  C62      1.0000 0.73023  0.42504  0.50490  Biso   1.000  C 
  C63      1.0000 0.21898  0.85051  0.48144  Biso   1.000  C 
  C64      1.0000 0.32355  0.58741  0.51157  Biso   1.000  C 
  Co1      1.0000 0.55792  0.02136  0.67726  Biso   1.000  Co
  Co2      1.0000 0.05833  0.52136  0.67703  Biso   1.000  Co
  Co3      1.0000 0.45011  0.02141  0.17730  Biso   1.000  Co
  Co4      1.0000 0.95041  0.52140  0.17716  Biso   1.000  Co
  H1       1.0000 0.58830  0.93039  0.30301  Biso   1.000  H 
  H2       1.0000 0.91707  0.43027  0.80192  Biso   1.000  H 
  H3       1.0000 0.69108  0.79115  0.28165  Biso   1.000  H 
  H4       1.0000 0.59047  0.11245  0.05221  Biso   1.000  H 
  H5       1.0000 0.60091  0.45438  0.19460  Biso   1.000  H 
  H6       1.0000 0.10057  0.95438  0.19464  Biso   1.000  H 
  H7       1.0000 0.17025  0.22135  0.23237  Biso   1.000  H 
  H8       1.0000 0.09065  0.61247  0.05210  Biso   1.000  H 
  H9       1.0000 0.31289  0.25150  0.57289  Biso   1.000  H 
  H10      1.0000 0.67022  0.72134  0.23230  Biso   1.000  H 
  H11      1.0000 0.40697  0.58861  0.65941  Biso   1.000  H 
  H12      1.0000 0.66913  0.32124  0.12117  Biso   1.000  H 
  H13      1.0000 0.83404  0.82132  0.62222  Biso   1.000  H 
  H14      1.0000 0.33410  0.32133  0.62226  Biso   1.000  H 
  H15      1.0000 0.81298  0.75149  0.57287  Biso   1.000  H 
  H16      1.0000 0.10216  0.08841  0.15987  Biso   1.000  H 
  H17      1.0000 0.41656  0.93027  0.80204  Biso   1.000  H 
  H18      1.0000 0.81220  0.29147  0.78042  Biso   1.000  H 
  H19      1.0000 0.19157  0.75143  0.07228  Biso   1.000  H 
  H20      1.0000 0.60236  0.58838  0.15970  Biso   1.000  H 
  H21      1.0000 0.41960  0.11243  0.55240  Biso   1.000  H 
  H22      1.0000 0.69166  0.25142  0.07233  Biso   1.000  H 
  H23      1.0000 0.91990  0.61245  0.55232  Biso   1.000  H 
  H24      1.0000 0.40493  0.45412  0.69476  Biso   1.000  H 
  H25      1.0000 0.90669  0.08858  0.65960  Biso   1.000  H 
  H26      1.0000 0.08863  0.43041  0.30296  Biso   1.000  H 
  H27      1.0000 0.16898  0.82125  0.12110  Biso   1.000  H 
  H28      1.0000 0.90444  0.95413  0.69477  Biso   1.000  H 
  H29      1.0000 0.19127  0.29116  0.28171  Biso   1.000  H 
  H30      1.0000 0.83484  0.22166  0.73158  Biso   1.000  H 
  H31      1.0000 0.33493  0.72168  0.73146  Biso   1.000  H 
  H32      1.0000 0.31227  0.79149  0.78031  Biso   1.000  H 
  N1       1.0000 0.77793  0.55411  0.96710  Biso   1.000  N 
  N2       1.0000 0.12954  0.56185  0.27577  Biso   1.000  N 
  N3       1.0000 0.73125  0.05419  0.46702  Biso   1.000  N 
  N4       1.0000 0.23166  0.55420  0.46681  Biso   1.000  N 
  N5       1.0000 0.62787  0.98093  0.07865  Biso   1.000  N 
  N6       1.0000 0.72994  0.98854  0.88737  Biso   1.000  N 
  N7       1.0000 0.38003  0.06182  0.77622  Biso   1.000  N 
  N8       1.0000 0.27640  0.98866  0.38751  Biso   1.000  N 
  N9       1.0000 0.77681  0.48866  0.38742  Biso   1.000  N 
  N10      1.0000 0.87894  0.48093  0.57839  Biso   1.000  N 
  N11      1.0000 0.27759  0.05411  0.96728  Biso   1.000  N 
  N12      1.0000 0.37841  0.98093  0.57855  Biso   1.000  N 
  N13      1.0000 0.23036  0.48854  0.88725  Biso   1.000  N 
  N14      1.0000 0.88045  0.56182  0.77609  Biso   1.000  N 
  N15      1.0000 0.62921  0.06184  0.27596  Biso   1.000  N 
  N16      1.0000 0.12825  0.48093  0.07852  Biso   1.000  N 
