data_image0
_cell_length_a       9.33555
_cell_length_b       34.7549
_cell_length_c       6.86302
_cell_angle_alpha    91.2103
_cell_angle_beta     90.5022
_cell_angle_gamma    89.9897

_symmetry_space_group_name_H-M    "P 1"
_symmetry_int_tables_number       1

loop_
  _symmetry_equiv_pos_as_xyz
  'x, y, z'

loop_
  _atom_site_label
  _atom_site_occupancy
  _atom_site_fract_x
  _atom_site_fract_y
  _atom_site_fract_z
  _atom_site_thermal_displace_type
  _atom_site_B_iso_or_equiv
  _atom_site_type_symbol
  C1       1.0000 0.31159  0.11605  0.90537  Biso   1.000  C 
  C2       1.0000 0.75396  0.23017  0.41917  Biso   1.000  C 
  C3       1.0000 0.25340  0.73021  0.41930  Biso   1.000  C 
  C4       1.0000 0.39292  0.94639  0.59060  Biso   1.000  C 
  C5       1.0000 0.77650  0.65539  0.90959  Biso   1.000  C 
  C6       1.0000 0.26168  0.19033  0.91407  Biso   1.000  C 
  C7       1.0000 0.20982  0.58783  0.55371  Biso   1.000  C 
  C8       1.0000 0.67521  0.79092  0.07365  Biso   1.000  C 
  C9       1.0000 0.17598  0.25100  0.06519  Biso   1.000  C 
  C10      1.0000 0.19312  0.61547  0.40741  Biso   1.000  C 
  C11      1.0000 0.69336  0.11545  0.40743  Biso   1.000  C 
  C12      1.0000 0.11067  0.59618  0.26225  Biso   1.000  C 
  C13      1.0000 0.61088  0.09617  0.26230  Biso   1.000  C 
  C14      1.0000 0.67650  0.75102  0.06518  Biso   1.000  C 
  C15      1.0000 0.25547  0.23100  0.92077  Biso   1.000  C 
  C16      1.0000 0.70999  0.08783  0.55379  Biso   1.000  C 
  C17      1.0000 0.33332  0.25262  0.78487  Biso   1.000  C 
  C18      1.0000 0.83395  0.75266  0.78497  Biso   1.000  C 
  C19      1.0000 0.33208  0.29252  0.79326  Biso   1.000  C 
  C20      1.0000 0.83265  0.79256  0.79344  Biso   1.000  C 
  C21      1.0000 0.25243  0.31253  0.93751  Biso   1.000  C 
  C22      1.0000 0.75292  0.81256  0.93767  Biso   1.000  C 
  C23      1.0000 0.24552  0.35319  0.94336  Biso   1.000  C 
  C24      1.0000 0.74594  0.85321  0.94352  Biso   1.000  C 
  C25      1.0000 0.29437  0.95427  0.29840  Biso   1.000  C 
  C26      1.0000 0.79427  0.45425  0.29831  Biso   1.000  C 
  C27      1.0000 0.31227  0.92672  0.44491  Biso   1.000  C 
  C28      1.0000 0.81227  0.42670  0.44479  Biso   1.000  C 
  C29      1.0000 0.26323  0.85241  0.43794  Biso   1.000  C 
  C30      1.0000 0.76222  0.69036  0.91406  Biso   1.000  C 
  C31      1.0000 0.27622  0.15536  0.90954  Biso   1.000  C 
  C32      1.0000 0.19286  0.42732  0.94947  Biso   1.000  C 
  C33      1.0000 0.17475  0.29091  0.07359  Biso   1.000  C 
  C34      1.0000 0.61088  0.94664  0.09303  Biso   1.000  C 
  C35      1.0000 0.75606  0.73103  0.92078  Biso   1.000  C 
  C36      1.0000 0.76347  0.35237  0.43791  Biso   1.000  C 
  C37      1.0000 0.22994  0.38812  0.94654  Biso   1.000  C 
  C38      1.0000 0.89288  0.44638  0.59047  Biso   1.000  C 
  C39      1.0000 0.73023  0.88814  0.94677  Biso   1.000  C 
  C40      1.0000 0.73084  0.15461  0.41091  Biso   1.000  C 
  C41      1.0000 0.70972  0.95497  0.80373  Biso   1.000  C 
  C42      1.0000 0.20954  0.45497  0.80361  Biso   1.000  C 
  C43      1.0000 0.24633  0.68956  0.41440  Biso   1.000  C 
  C44      1.0000 0.67617  0.29152  0.28892  Biso   1.000  C 
  C45      1.0000 0.17580  0.79156  0.28895  Biso   1.000  C 
  C46      1.0000 0.67472  0.25161  0.28210  Biso   1.000  C 
  C47      1.0000 0.17427  0.75166  0.28216  Biso   1.000  C 
  C48      1.0000 0.11068  0.44663  0.09289  Biso   1.000  C 
  C49      1.0000 0.23044  0.65464  0.41100  Biso   1.000  C 
  C50      1.0000 0.83531  0.25036  0.56291  Biso   1.000  C 
  C51      1.0000 0.33475  0.75039  0.56305  Biso   1.000  C 
  C52      1.0000 0.83671  0.29027  0.56981  Biso   1.000  C 
  C53      1.0000 0.33629  0.79031  0.56990  Biso   1.000  C 
  C54      1.0000 0.75736  0.31170  0.43284  Biso   1.000  C 
  C55      1.0000 0.89284  0.59660  0.76141  Biso   1.000  C 
  C56      1.0000 0.39281  0.09659  0.76138  Biso   1.000  C 
  C57      1.0000 0.81171  0.61607  0.90542  Biso   1.000  C 
  C58      1.0000 0.69308  0.92733  0.94965  Biso   1.000  C 
  C59      1.0000 0.25700  0.81175  0.43289  Biso   1.000  C 
  C60      1.0000 0.79358  0.58833  0.05049  Biso   1.000  C 
  C61      1.0000 0.29359  0.08831  0.05049  Biso   1.000  C 
  C62      1.0000 0.27733  0.88738  0.44118  Biso   1.000  C 
  C63      1.0000 0.77744  0.38735  0.44109  Biso   1.000  C 
  C64      1.0000 0.74689  0.18952  0.41427  Biso   1.000  C 
  Co1      1.0000 0.96644  0.52138  0.17605  Biso   1.000  Co
  Co2      1.0000 0.46663  0.02139  0.17609  Biso   1.000  Co
  Co3      1.0000 0.53413  0.02148  0.67692  Biso   1.000  Co
  Co4      1.0000 0.03400  0.52147  0.67689  Biso   1.000  Co
  H1       1.0000 0.43084  0.10727  0.62364  Biso   1.000  H 
  H2       1.0000 0.61129  0.23638  0.17089  Biso   1.000  H 
  H3       1.0000 0.76358  0.09060  0.69441  Biso   1.000  H 
  H4       1.0000 0.43071  0.93590  0.72973  Biso   1.000  H 
  H5       1.0000 0.93094  0.60728  0.62371  Biso   1.000  H 
  H6       1.0000 0.26294  0.45217  0.66414  Biso   1.000  H 
  H7       1.0000 0.11091  0.73643  0.17086  Biso   1.000  H 
  H8       1.0000 0.39966  0.80554  0.68120  Biso   1.000  H 
  H9       1.0000 0.90004  0.30551  0.68111  Biso   1.000  H 
  H10      1.0000 0.07322  0.43596  0.23095  Biso   1.000  H 
  H11      1.0000 0.11418  0.80769  0.18249  Biso   1.000  H 
  H12      1.0000 0.76303  0.95216  0.66419  Biso   1.000  H 
  H13      1.0000 0.11266  0.30600  0.18523  Biso   1.000  H 
  H14      1.0000 0.89702  0.23424  0.66934  Biso   1.000  H 
  H15      1.0000 0.39640  0.73426  0.66950  Biso   1.000  H 
  H16      1.0000 0.74044  0.59119  0.19011  Biso   1.000  H 
  H17      1.0000 0.57341  0.93598  0.23110  Biso   1.000  H 
  H18      1.0000 0.89309  0.80884  0.68779  Biso   1.000  H 
  H19      1.0000 0.93070  0.43589  0.72958  Biso   1.000  H 
  H20      1.0000 0.61302  0.80600  0.18525  Biso   1.000  H 
  H21      1.0000 0.57328  0.10684  0.12344  Biso   1.000  H 
  H22      1.0000 0.11539  0.23475  0.17077  Biso   1.000  H 
  H23      1.0000 0.74143  0.45119  0.15728  Biso   1.000  H 
  H24      1.0000 0.24154  0.95121  0.15737  Biso   1.000  H 
  H25      1.0000 0.24041  0.09116  0.19009  Biso   1.000  H 
  H26      1.0000 0.39258  0.30878  0.68762  Biso   1.000  H 
  H27      1.0000 0.89600  0.73759  0.67325  Biso   1.000  H 
  H28      1.0000 0.39535  0.23754  0.67316  Biso   1.000  H 
  H29      1.0000 0.61589  0.73474  0.17066  Biso   1.000  H 
  H30      1.0000 0.26346  0.59061  0.69429  Biso   1.000  H 
  H31      1.0000 0.61444  0.30764  0.18257  Biso   1.000  H 
  H32      1.0000 0.07312  0.60685  0.12337  Biso   1.000  H 
  N1       1.0000 0.57895  0.06045  0.32061  Biso   1.000  N 
  N2       1.0000 0.42271  0.98226  0.53249  Biso   1.000  N 
  N3       1.0000 0.36175  0.05547  0.99836  Biso   1.000  N 
  N4       1.0000 0.92260  0.48226  0.53239  Biso   1.000  N 
  N5       1.0000 0.86194  0.48721  0.35138  Biso   1.000  N 
  N6       1.0000 0.36209  0.98722  0.35146  Biso   1.000  N 
  N7       1.0000 0.07880  0.56045  0.32052  Biso   1.000  N 
  N8       1.0000 0.92268  0.56067  0.81920  Biso   1.000  N 
  N9       1.0000 0.42278  0.06067  0.81922  Biso   1.000  N 
  N10      1.0000 0.86161  0.55547  0.99832  Biso   1.000  N 
  N11      1.0000 0.63994  0.98762  0.85492  Biso   1.000  N 
  N12      1.0000 0.57911  0.98238  0.03412  Biso   1.000  N 
  N13      1.0000 0.13982  0.55521  0.50105  Biso   1.000  N 
  N14      1.0000 0.63994  0.05521  0.50115  Biso   1.000  N 
  N15      1.0000 0.13979  0.48762  0.85487  Biso   1.000  N 
  N16      1.0000 0.07895  0.48238  0.03405  Biso   1.000  N 
