data_image0
_cell_length_a       17.8557
_cell_length_b       32.2408
_cell_length_c       6.46105
_cell_angle_alpha    99.4711
_cell_angle_beta     90.2771
_cell_angle_gamma    90.0025

_symmetry_space_group_name_H-M    "P 1"
_symmetry_int_tables_number       1

loop_
  _symmetry_equiv_pos_as_xyz
  'x, y, z'

loop_
  _atom_site_label
  _atom_site_occupancy
  _atom_site_fract_x
  _atom_site_fract_y
  _atom_site_fract_z
  _atom_site_thermal_displace_type
  _atom_site_B_iso_or_equiv
  _atom_site_type_symbol
  C1       1.0000 0.38372  0.11864  0.93156  Biso   1.000  C 
  C2       1.0000 0.22100  0.73136  0.43333  Biso   1.000  C 
  C3       1.0000 0.43793  0.94186  0.56649  Biso   1.000  C 
  C4       1.0000 0.84733  0.65740  0.93568  Biso   1.000  C 
  C5       1.0000 0.31743  0.19141  0.93526  Biso   1.000  C 
  C6       1.0000 0.12878  0.58950  0.57348  Biso   1.000  C 
  C7       1.0000 0.62861  0.08960  0.57364  Biso   1.000  C 
  C8       1.0000 0.71055  0.79071  0.09717  Biso   1.000  C 
  C9       1.0000 0.24113  0.25125  0.10104  Biso   1.000  C 
  C10      1.0000 0.12256  0.61867  0.43340  Biso   1.000  C 
  C11      1.0000 0.62237  0.11875  0.43346  Biso   1.000  C 
  C12      1.0000 0.06817  0.60073  0.28599  Biso   1.000  C 
  C13      1.0000 0.56797  0.10078  0.28612  Biso   1.000  C 
  C14      1.0000 0.74169  0.75146  0.10122  Biso   1.000  C 
  C15      1.0000 0.28498  0.23126  0.93192  Biso   1.000  C 
  C16      1.0000 0.81805  0.69164  0.93539  Biso   1.000  C 
  C17      1.0000 0.29640  0.25223  0.75877  Biso   1.000  C 
  C18      1.0000 0.79695  0.75246  0.75894  Biso   1.000  C 
  C19      1.0000 0.26541  0.29152  0.75489  Biso   1.000  C 
  C20      1.0000 0.76580  0.79170  0.75489  Biso   1.000  C 
  C21      1.0000 0.22157  0.31151  0.92402  Biso   1.000  C 
  C22      1.0000 0.72187  0.81165  0.92391  Biso   1.000  C 
  C23      1.0000 0.18910  0.35135  0.92047  Biso   1.000  C 
  C24      1.0000 0.68926  0.85145  0.92020  Biso   1.000  C 
  C25      1.0000 0.37723  0.95301  0.27901  Biso   1.000  C 
  C26      1.0000 0.87723  0.45307  0.27895  Biso   1.000  C 
  C27      1.0000 0.38343  0.92391  0.41947  Biso   1.000  C 
  C28      1.0000 0.88340  0.42396  0.41941  Biso   1.000  C 
  C29      1.0000 0.31686  0.85129  0.41797  Biso   1.000  C 
  C30      1.0000 0.21015  0.29054  0.09716  Biso   1.000  C 
  C31      1.0000 0.34681  0.15720  0.93586  Biso   1.000  C 
  C32      1.0000 0.72089  0.23142  0.43331  Biso   1.000  C 
  C33      1.0000 0.78558  0.73149  0.93214  Biso   1.000  C 
  C34      1.0000 0.56833  0.94196  0.06801  Biso   1.000  C 
  C35      1.0000 0.81685  0.35133  0.41798  Biso   1.000  C 
  C36      1.0000 0.15966  0.38551  0.91901  Biso   1.000  C 
  C37      1.0000 0.93791  0.44190  0.56642  Biso   1.000  C 
  C38      1.0000 0.65974  0.88559  0.91860  Biso   1.000  C 
  C39      1.0000 0.65926  0.15733  0.43796  Biso   1.000  C 
  C40      1.0000 0.15946  0.65725  0.43801  Biso   1.000  C 
  C41      1.0000 0.62868  0.95320  0.78175  Biso   1.000  C 
  C42      1.0000 0.12878  0.45314  0.78196  Biso   1.000  C 
  C43      1.0000 0.18873  0.69149  0.43740  Biso   1.000  C 
  C44      1.0000 0.74024  0.29128  0.25362  Biso   1.000  C 
  C45      1.0000 0.24026  0.79122  0.25363  Biso   1.000  C 
  C46      1.0000 0.70920  0.25205  0.25885  Biso   1.000  C 
  C47      1.0000 0.20927  0.75198  0.25886  Biso   1.000  C 
  C48      1.0000 0.06823  0.44192  0.06797  Biso   1.000  C 
  C49      1.0000 0.68856  0.19157  0.43736  Biso   1.000  C 
  C50      1.0000 0.76495  0.25171  0.60256  Biso   1.000  C 
  C51      1.0000 0.26502  0.75167  0.60261  Biso   1.000  C 
  C52      1.0000 0.79596  0.29094  0.59735  Biso   1.000  C 
  C53      1.0000 0.29599  0.79091  0.59739  Biso   1.000  C 
  C54      1.0000 0.78435  0.31155  0.42275  Biso   1.000  C 
  C55      1.0000 0.93838  0.60086  0.78519  Biso   1.000  C 
  C56      1.0000 0.43811  0.10080  0.78549  Biso   1.000  C 
  C57      1.0000 0.88407  0.61878  0.93130  Biso   1.000  C 
  C58      1.0000 0.12264  0.42401  0.92221  Biso   1.000  C 
  C59      1.0000 0.28436  0.81151  0.42276  Biso   1.000  C 
  C60      1.0000 0.87762  0.58949  0.07057  Biso   1.000  C 
  C61      1.0000 0.37739  0.08934  0.07082  Biso   1.000  C 
  C62      1.0000 0.34632  0.88543  0.41592  Biso   1.000  C 
  C63      1.0000 0.84628  0.38547  0.41585  Biso   1.000  C 
  C64      1.0000 0.62266  0.92407  0.92195  Biso   1.000  C 
  Co1      1.0000 0.47961  0.02121  0.17588  Biso   1.000  Co
  Co2      1.0000 0.97967  0.52122  0.17558  Biso   1.000  Co
  Co3      1.0000 0.02646  0.52132  0.67623  Biso   1.000  Co
  Co4      1.0000 0.52639  0.02134  0.67632  Biso   1.000  Co
  H1       1.0000 0.67521  0.23669  0.12770  Biso   1.000  H 
  H2       1.0000 0.66326  0.09106  0.71317  Biso   1.000  H 
  H3       1.0000 0.45984  0.93009  0.70273  Biso   1.000  H 
  H4       1.0000 0.17530  0.73661  0.12772  Biso   1.000  H 
  H5       1.0000 0.96039  0.61273  0.64986  Biso   1.000  H 
  H6       1.0000 0.16345  0.45168  0.64344  Biso   1.000  H 
  H7       1.0000 0.84288  0.59087  0.20894  Biso   1.000  H 
  H8       1.0000 0.32992  0.80629  0.72859  Biso   1.000  H 
  H9       1.0000 0.27446  0.73611  0.73804  Biso   1.000  H 
  H10      1.0000 0.82991  0.30631  0.72856  Biso   1.000  H 
  H11      1.0000 0.04638  0.43014  0.20373  Biso   1.000  H 
  H12      1.0000 0.23082  0.80678  0.11821  Biso   1.000  H 
  H13      1.0000 0.66324  0.95177  0.64300  Biso   1.000  H 
  H14      1.0000 0.17635  0.30566  0.22827  Biso   1.000  H 
  H15      1.0000 0.77438  0.23615  0.73798  Biso   1.000  H 
  H16      1.0000 0.46009  0.11273  0.65030  Biso   1.000  H 
  H17      1.0000 0.95980  0.43012  0.70265  Biso   1.000  H 
  H18      1.0000 0.73082  0.30684  0.11818  Biso   1.000  H 
  H19      1.0000 0.67671  0.80581  0.22822  Biso   1.000  H 
  H20      1.0000 0.54608  0.11257  0.14990  Biso   1.000  H 
  H21      1.0000 0.23186  0.23540  0.23532  Biso   1.000  H 
  H22      1.0000 0.34269  0.09068  0.20922  Biso   1.000  H 
  H23      1.0000 0.84250  0.45162  0.13957  Biso   1.000  H 
  H24      1.0000 0.34249  0.95155  0.13965  Biso   1.000  H 
  H25      1.0000 0.54656  0.93017  0.20382  Biso   1.000  H 
  H26      1.0000 0.77500  0.80754  0.62054  Biso   1.000  H 
  H27      1.0000 0.27465  0.30736  0.62056  Biso   1.000  H 
  H28      1.0000 0.83077  0.73735  0.62786  Biso   1.000  H 
  H29      1.0000 0.33016  0.23710  0.62761  Biso   1.000  H 
  H30      1.0000 0.73247  0.73562  0.23554  Biso   1.000  H 
  H31      1.0000 0.16343  0.59094  0.71300  Biso   1.000  H 
  H32      1.0000 0.04632  0.61254  0.14978  Biso   1.000  H 
  N1       1.0000 0.04442  0.56404  0.33612  Biso   1.000  N 
  N2       1.0000 0.42424  0.05687  0.01095  Biso   1.000  N 
  N3       1.0000 0.96174  0.47852  0.51580  Biso   1.000  N 
  N4       1.0000 0.92428  0.48555  0.33914  Biso   1.000  N 
  N5       1.0000 0.42424  0.98551  0.33922  Biso   1.000  N 
  N6       1.0000 0.54426  0.06410  0.33637  Biso   1.000  N 
  N7       1.0000 0.58170  0.05708  0.51305  Biso   1.000  N 
  N8       1.0000 0.08179  0.48559  0.84107  Biso   1.000  N 
  N9       1.0000 0.96189  0.56410  0.83537  Biso   1.000  N 
  N10      1.0000 0.46173  0.06406  0.83560  Biso   1.000  N 
  N11      1.0000 0.92436  0.55696  0.01076  Biso   1.000  N 
  N12      1.0000 0.58172  0.98565  0.84118  Biso   1.000  N 
  N13      1.0000 0.54445  0.97858  0.01706  Biso   1.000  N 
  N14      1.0000 0.08185  0.55699  0.51278  Biso   1.000  N 
  N15      1.0000 0.46171  0.97850  0.51589  Biso   1.000  N 
  N16      1.0000 0.04441  0.47853  0.01681  Biso   1.000  N 
