data_image0
_cell_length_a       15.4644
_cell_length_b       33.3034
_cell_length_c       6.45161
_cell_angle_alpha    98.1855
_cell_angle_beta     90.3188
_cell_angle_gamma    89.9911

_symmetry_space_group_name_H-M    "P 1"
_symmetry_int_tables_number       1

loop_
  _symmetry_equiv_pos_as_xyz
  'x, y, z'

loop_
  _atom_site_label
  _atom_site_occupancy
  _atom_site_fract_x
  _atom_site_fract_y
  _atom_site_fract_z
  _atom_site_thermal_displace_type
  _atom_site_B_iso_or_equiv
  _atom_site_type_symbol
  C1       1.0000 0.37273  0.11749  0.92876  Biso   1.000  C 
  C2       1.0000 0.22536  0.73108  0.43340  Biso   1.000  C 
  C3       1.0000 0.43328  0.94352  0.57072  Biso   1.000  C 
  C4       1.0000 0.83657  0.65628  0.93426  Biso   1.000  C 
  C5       1.0000 0.30931  0.19072  0.93449  Biso   1.000  C 
  C6       1.0000 0.14390  0.58915  0.57273  Biso   1.000  C 
  C7       1.0000 0.64373  0.08921  0.57276  Biso   1.000  C 
  C8       1.0000 0.70861  0.79191  0.09776  Biso   1.000  C 
  C9       1.0000 0.23539  0.25231  0.10204  Biso   1.000  C 
  C10      1.0000 0.13319  0.61774  0.43258  Biso   1.000  C 
  C11      1.0000 0.63303  0.11778  0.43247  Biso   1.000  C 
  C12      1.0000 0.07277  0.59927  0.28382  Biso   1.000  C 
  C13      1.0000 0.57264  0.09928  0.28370  Biso   1.000  C 
  C14      1.0000 0.73571  0.75236  0.10207  Biso   1.000  C 
  C15      1.0000 0.28067  0.23090  0.93116  Biso   1.000  C 
  C16      1.0000 0.80974  0.69080  0.93446  Biso   1.000  C 
  C17      1.0000 0.29778  0.25076  0.75593  Biso   1.000  C 
  C18      1.0000 0.79816  0.75086  0.75606  Biso   1.000  C 
  C19      1.0000 0.27074  0.29031  0.75155  Biso   1.000  C 
  C20      1.0000 0.77108  0.79041  0.75179  Biso   1.000  C 
  C21      1.0000 0.22540  0.31171  0.92237  Biso   1.000  C 
  C22      1.0000 0.72569  0.81178  0.92259  Biso   1.000  C 
  C23      1.0000 0.19667  0.35188  0.91903  Biso   1.000  C 
  C24      1.0000 0.69691  0.85194  0.91926  Biso   1.000  C 
  C25      1.0000 0.36230  0.95368  0.28169  Biso   1.000  C 
  C26      1.0000 0.86227  0.45371  0.28166  Biso   1.000  C 
  C27      1.0000 0.37278  0.92510  0.42199  Biso   1.000  C 
  C28      1.0000 0.87276  0.42512  0.42189  Biso   1.000  C 
  C29      1.0000 0.30915  0.85195  0.41704  Biso   1.000  C 
  C30      1.0000 0.20835  0.29187  0.09766  Biso   1.000  C 
  C31      1.0000 0.33616  0.15620  0.93433  Biso   1.000  C 
  C32      1.0000 0.72518  0.23110  0.43307  Biso   1.000  C 
  C33      1.0000 0.78107  0.73098  0.93122  Biso   1.000  C 
  C34      1.0000 0.57283  0.94350  0.07187  Biso   1.000  C 
  C35      1.0000 0.80912  0.35195  0.41674  Biso   1.000  C 
  C36      1.0000 0.16978  0.38638  0.91912  Biso   1.000  C 
  C37      1.0000 0.93326  0.44352  0.57065  Biso   1.000  C 
  C38      1.0000 0.66996  0.88643  0.91928  Biso   1.000  C 
  C39      1.0000 0.66956  0.15650  0.43823  Biso   1.000  C 
  C40      1.0000 0.16972  0.65647  0.43846  Biso   1.000  C 
  C41      1.0000 0.64415  0.95381  0.78540  Biso   1.000  C 
  C42      1.0000 0.14409  0.45377  0.78535  Biso   1.000  C 
  C43      1.0000 0.19665  0.69095  0.43804  Biso   1.000  C 
  C44      1.0000 0.73490  0.29011  0.25049  Biso   1.000  C 
  C45      1.0000 0.23496  0.79009  0.25089  Biso   1.000  C 
  C46      1.0000 0.70788  0.25060  0.25626  Biso   1.000  C 
  C47      1.0000 0.20800  0.75057  0.25661  Biso   1.000  C 
  C48      1.0000 0.07276  0.44348  0.07183  Biso   1.000  C 
  C49      1.0000 0.69646  0.19098  0.43773  Biso   1.000  C 
  C50      1.0000 0.77075  0.25281  0.60391  Biso   1.000  C 
  C51      1.0000 0.27094  0.75278  0.60421  Biso   1.000  C 
  C52      1.0000 0.79776  0.29232  0.59815  Biso   1.000  C 
  C53      1.0000 0.29791  0.79230  0.59848  Biso   1.000  C 
  C54      1.0000 0.78043  0.31182  0.42139  Biso   1.000  C 
  C55      1.0000 0.93349  0.59914  0.78149  Biso   1.000  C 
  C56      1.0000 0.43322  0.09912  0.78162  Biso   1.000  C 
  C57      1.0000 0.87308  0.61756  0.92869  Biso   1.000  C 
  C58      1.0000 0.13328  0.42510  0.92479  Biso   1.000  C 
  C59      1.0000 0.28050  0.81181  0.42177  Biso   1.000  C 
  C60      1.0000 0.86245  0.58896  0.06856  Biso   1.000  C 
  C61      1.0000 0.36219  0.08888  0.06859  Biso   1.000  C 
  C62      1.0000 0.33605  0.88642  0.41629  Biso   1.000  C 
  C63      1.0000 0.83605  0.38643  0.41606  Biso   1.000  C 
  C64      1.0000 0.63339  0.92514  0.92488  Biso   1.000  C 
  Co1      1.0000 0.47575  0.02133  0.17668  Biso   1.000  Co
  Co2      1.0000 0.97583  0.52134  0.17669  Biso   1.000  Co
  Co3      1.0000 0.03078  0.52131  0.67731  Biso   1.000  Co
  Co4      1.0000 0.53071  0.02134  0.67743  Biso   1.000  Co
  H1       1.0000 0.67265  0.23414  0.12385  Biso   1.000  H 
  H2       1.0000 0.68326  0.09119  0.71341  Biso   1.000  H 
  H3       1.0000 0.45971  0.93216  0.70739  Biso   1.000  H 
  H4       1.0000 0.17278  0.73410  0.12421  Biso   1.000  H 
  H5       1.0000 0.96005  0.61052  0.64568  Biso   1.000  H 
  H6       1.0000 0.18376  0.45192  0.64605  Biso   1.000  H 
  H7       1.0000 0.82288  0.59087  0.20807  Biso   1.000  H 
  H8       1.0000 0.33321  0.80875  0.73082  Biso   1.000  H 
  H9       1.0000 0.28479  0.73811  0.74138  Biso   1.000  H 
  H10      1.0000 0.83305  0.30877  0.73052  Biso   1.000  H 
  H11      1.0000 0.04602  0.43205  0.20733  Biso   1.000  H 
  H12      1.0000 0.22116  0.80476  0.11369  Biso   1.000  H 
  H13      1.0000 0.68381  0.95198  0.64609  Biso   1.000  H 
  H14      1.0000 0.17331  0.30811  0.22998  Biso   1.000  H 
  H15      1.0000 0.78455  0.23814  0.74112  Biso   1.000  H 
  H16      1.0000 0.45975  0.11054  0.64586  Biso   1.000  H 
  H17      1.0000 0.95970  0.43215  0.70728  Biso   1.000  H 
  H18      1.0000 0.72115  0.30478  0.11325  Biso   1.000  H 
  H19      1.0000 0.67344  0.80812  0.22997  Biso   1.000  H 
  H20      1.0000 0.54603  0.11062  0.14716  Biso   1.000  H 
  H21      1.0000 0.22191  0.23740  0.23823  Biso   1.000  H 
  H22      1.0000 0.32263  0.09076  0.20809  Biso   1.000  H 
  H23      1.0000 0.82268  0.45184  0.14113  Biso   1.000  H 
  H24      1.0000 0.32274  0.95180  0.14110  Biso   1.000  H 
  H25      1.0000 0.54610  0.93206  0.20734  Biso   1.000  H 
  H26      1.0000 0.78463  0.80537  0.61575  Biso   1.000  H 
  H27      1.0000 0.28431  0.30525  0.61547  Biso   1.000  H 
  H28      1.0000 0.83328  0.73466  0.62373  Biso   1.000  H 
  H29      1.0000 0.33288  0.23454  0.62363  Biso   1.000  H 
  H30      1.0000 0.72217  0.73741  0.23812  Biso   1.000  H 
  H31      1.0000 0.18346  0.59111  0.71334  Biso   1.000  H 
  H32      1.0000 0.04612  0.61064  0.14737  Biso   1.000  H 
  N1       1.0000 0.04973  0.56289  0.33358  Biso   1.000  N 
  N2       1.0000 0.41265  0.05633  0.00848  Biso   1.000  N 
  N3       1.0000 0.95662  0.47985  0.52071  Biso   1.000  N 
  N4       1.0000 0.91278  0.48628  0.34309  Biso   1.000  N 
  N5       1.0000 0.41279  0.98626  0.34308  Biso   1.000  N 
  N6       1.0000 0.54960  0.06291  0.33359  Biso   1.000  N 
  N7       1.0000 0.59349  0.05655  0.51126  Biso   1.000  N 
  N8       1.0000 0.09376  0.48635  0.84562  Biso   1.000  N 
  N9       1.0000 0.95667  0.56280  0.83198  Biso   1.000  N 
  N10      1.0000 0.45652  0.06279  0.83208  Biso   1.000  N 
  N11      1.0000 0.91281  0.55637  0.00843  Biso   1.000  N 
  N12      1.0000 0.59375  0.98638  0.84562  Biso   1.000  N 
  N13      1.0000 0.54971  0.97987  0.02171  Biso   1.000  N 
  N14      1.0000 0.09365  0.55650  0.51116  Biso   1.000  N 
  N15      1.0000 0.45663  0.97984  0.52072  Biso   1.000  N 
  N16      1.0000 0.04971  0.47986  0.02170  Biso   1.000  N 
