data_image0
_cell_length_a       13.0723
_cell_length_b       34.0659
_cell_length_c       6.55098
_cell_angle_alpha    95.8529
_cell_angle_beta     90.534
_cell_angle_gamma    90.0052

_symmetry_space_group_name_H-M    "P 1"
_symmetry_int_tables_number       1

loop_
  _symmetry_equiv_pos_as_xyz
  'x, y, z'

loop_
  _atom_site_label
  _atom_site_occupancy
  _atom_site_fract_x
  _atom_site_fract_y
  _atom_site_fract_z
  _atom_site_thermal_displace_type
  _atom_site_B_iso_or_equiv
  _atom_site_type_symbol
  C1       1.0000 0.35591  0.11663  0.92118  Biso   1.000  C 
  C2       1.0000 0.79632  0.35245  0.42251  Biso   1.000  C 
  C3       1.0000 0.18649  0.38769  0.92769  Biso   1.000  C 
  C4       1.0000 0.92302  0.44497  0.57715  Biso   1.000  C 
  C5       1.0000 0.68668  0.88773  0.92790  Biso   1.000  C 
  C6       1.0000 0.68709  0.15511  0.43065  Biso   1.000  C 
  C7       1.0000 0.18718  0.65509  0.43058  Biso   1.000  C 
  C8       1.0000 0.66316  0.95466  0.79197  Biso   1.000  C 
  C9       1.0000 0.16309  0.45464  0.79193  Biso   1.000  C 
  C10      1.0000 0.21095  0.68979  0.43116  Biso   1.000  C 
  C11      1.0000 0.72767  0.28994  0.25348  Biso   1.000  C 
  C12      1.0000 0.22769  0.78993  0.25345  Biso   1.000  C 
  C13      1.0000 0.70803  0.25000  0.25579  Biso   1.000  C 
  C14      1.0000 0.20808  0.74998  0.25574  Biso   1.000  C 
  C15      1.0000 0.08197  0.44507  0.07971  Biso   1.000  C 
  C16      1.0000 0.71088  0.18981  0.43123  Biso   1.000  C 
  C17      1.0000 0.77998  0.25228  0.60034  Biso   1.000  C 
  C18      1.0000 0.27999  0.75227  0.60035  Biso   1.000  C 
  C19      1.0000 0.79966  0.29222  0.59800  Biso   1.000  C 
  C20      1.0000 0.29963  0.79222  0.59802  Biso   1.000  C 
  C21      1.0000 0.77398  0.31191  0.42454  Biso   1.000  C 
  C22      1.0000 0.92322  0.59789  0.77450  Biso   1.000  C 
  C23      1.0000 0.42307  0.09787  0.77439  Biso   1.000  C 
  C24      1.0000 0.85609  0.61666  0.92131  Biso   1.000  C 
  C25      1.0000 0.27396  0.81190  0.42455  Biso   1.000  C 
  C26      1.0000 0.84217  0.58853  0.06269  Biso   1.000  C 
  C27      1.0000 0.34208  0.08850  0.06262  Biso   1.000  C 
  C28      1.0000 0.31951  0.88719  0.42249  Biso   1.000  C 
  C29      1.0000 0.81952  0.38720  0.42245  Biso   1.000  C 
  C30      1.0000 0.64968  0.92650  0.93338  Biso   1.000  C 
  C31      1.0000 0.58207  0.94509  0.07981  Biso   1.000  C 
  C32      1.0000 0.77400  0.73086  0.92806  Biso   1.000  C 
  C33      1.0000 0.14956  0.42648  0.93326  Biso   1.000  C 
  C34      1.0000 0.31952  0.15548  0.92685  Biso   1.000  C 
  C35      1.0000 0.73360  0.23032  0.42933  Biso   1.000  C 
  C36      1.0000 0.23365  0.73030  0.42930  Biso   1.000  C 
  C37      1.0000 0.42304  0.94496  0.57718  Biso   1.000  C 
  C38      1.0000 0.81982  0.65554  0.92702  Biso   1.000  C 
  C39      1.0000 0.29610  0.19023  0.92805  Biso   1.000  C 
  C40      1.0000 0.16350  0.58828  0.56745  Biso   1.000  C 
  C41      1.0000 0.70838  0.79239  0.09867  Biso   1.000  C 
  C42      1.0000 0.22779  0.25238  0.09890  Biso   1.000  C 
  C43      1.0000 0.15014  0.61631  0.42484  Biso   1.000  C 
  C44      1.0000 0.65008  0.11632  0.42490  Biso   1.000  C 
  C45      1.0000 0.08249  0.59760  0.27619  Biso   1.000  C 
  C46      1.0000 0.58244  0.09761  0.27624  Biso   1.000  C 
  C47      1.0000 0.72810  0.75242  0.09904  Biso   1.000  C 
  C48      1.0000 0.27359  0.23079  0.92788  Biso   1.000  C 
  C49      1.0000 0.66346  0.08829  0.56749  Biso   1.000  C 
  C50      1.0000 0.29873  0.25089  0.75645  Biso   1.000  C 
  C51      1.0000 0.79921  0.75098  0.75675  Biso   1.000  C 
  C52      1.0000 0.27907  0.29088  0.75602  Biso   1.000  C 
  C53      1.0000 0.77947  0.79096  0.75637  Biso   1.000  C 
  C54      1.0000 0.23317  0.31246  0.92694  Biso   1.000  C 
  C55      1.0000 0.73345  0.81251  0.92722  Biso   1.000  C 
  C56      1.0000 0.21035  0.35299  0.92656  Biso   1.000  C 
  C57      1.0000 0.71059  0.85303  0.92683  Biso   1.000  C 
  C58      1.0000 0.20811  0.29236  0.09844  Biso   1.000  C 
  C59      1.0000 0.34183  0.95413  0.28595  Biso   1.000  C 
  C60      1.0000 0.84183  0.45414  0.28591  Biso   1.000  C 
  C61      1.0000 0.35579  0.92608  0.42826  Biso   1.000  C 
  C62      1.0000 0.85579  0.42609  0.42821  Biso   1.000  C 
  C63      1.0000 0.29630  0.85244  0.42255  Biso   1.000  C 
  C64      1.0000 0.79647  0.69029  0.92818  Biso   1.000  C 
  Co1      1.0000 0.53245  0.02143  0.67748  Biso   1.000  Co
  Co2      1.0000 0.03245  0.52143  0.67745  Biso   1.000  Co
  Co3      1.0000 0.47161  0.02136  0.17660  Biso   1.000  Co
  Co4      1.0000 0.97160  0.52137  0.17657  Biso   1.000  Co
  H1       1.0000 0.67272  0.80874  0.23105  Biso   1.000  H 
  H2       1.0000 0.55169  0.10866  0.13865  Biso   1.000  H 
  H3       1.0000 0.20808  0.23723  0.23200  Biso   1.000  H 
  H4       1.0000 0.29775  0.09077  0.20259  Biso   1.000  H 
  H5       1.0000 0.79743  0.45177  0.14435  Biso   1.000  H 
  H6       1.0000 0.29741  0.95176  0.14439  Biso   1.000  H 
  H7       1.0000 0.55123  0.93390  0.21590  Biso   1.000  H 
  H8       1.0000 0.05176  0.60865  0.13855  Biso   1.000  H 
  H9       1.0000 0.29885  0.30601  0.62294  Biso   1.000  H 
  H10      1.0000 0.83490  0.73463  0.62439  Biso   1.000  H 
  H11      1.0000 0.33434  0.23453  0.62406  Biso   1.000  H 
  H12      1.0000 0.70832  0.73726  0.23206  Biso   1.000  H 
  H13      1.0000 0.20793  0.59056  0.70897  Biso   1.000  H 
  H14      1.0000 0.70751  0.30475  0.11880  Biso   1.000  H 
  H15      1.0000 0.79929  0.80611  0.62335  Biso   1.000  H 
  H16      1.0000 0.95405  0.43394  0.71458  Biso   1.000  H 
  H17      1.0000 0.79781  0.59080  0.20265  Biso   1.000  H 
  H18      1.0000 0.80016  0.23747  0.73500  Biso   1.000  H 
  H19      1.0000 0.45403  0.10897  0.63816  Biso   1.000  H 
  H20      1.0000 0.67208  0.23334  0.12326  Biso   1.000  H 
  H21      1.0000 0.70790  0.09057  0.70901  Biso   1.000  H 
  H22      1.0000 0.45408  0.93394  0.71458  Biso   1.000  H 
  H23      1.0000 0.95419  0.60899  0.63829  Biso   1.000  H 
  H24      1.0000 0.20757  0.45250  0.65214  Biso   1.000  H 
  H25      1.0000 0.17215  0.73332  0.12319  Biso   1.000  H 
  H26      1.0000 0.30015  0.73746  0.73501  Biso   1.000  H 
  H27      1.0000 0.83565  0.30889  0.73046  Biso   1.000  H 
  H28      1.0000 0.05109  0.43388  0.21575  Biso   1.000  H 
  H29      1.0000 0.20755  0.80474  0.11878  Biso   1.000  H 
  H30      1.0000 0.70762  0.95251  0.65216  Biso   1.000  H 
  H31      1.0000 0.17255  0.30872  0.23089  Biso   1.000  H 
  H32      1.0000 0.33559  0.80888  0.73049  Biso   1.000  H 
  N1       1.0000 0.94747  0.56184  0.82698  Biso   1.000  N 
  N2       1.0000 0.10741  0.55579  0.50808  Biso   1.000  N 
  N3       1.0000 0.55710  0.98105  0.02709  Biso   1.000  N 
  N4       1.0000 0.60719  0.98710  0.84987  Biso   1.000  N 
  N5       1.0000 0.89743  0.55592  0.00445  Biso   1.000  N 
  N6       1.0000 0.44743  0.06184  0.82696  Biso   1.000  N 
  N7       1.0000 0.10716  0.48709  0.84985  Biso   1.000  N 
  N8       1.0000 0.05739  0.56169  0.32877  Biso   1.000  N 
  N9       1.0000 0.55737  0.06169  0.32880  Biso   1.000  N 
  N10      1.0000 0.39719  0.98679  0.34571  Biso   1.000  N 
  N11      1.0000 0.89716  0.48680  0.34572  Biso   1.000  N 
  N12      1.0000 0.94728  0.48099  0.52508  Biso   1.000  N 
  N13      1.0000 0.39742  0.05591  0.00445  Biso   1.000  N 
  N14      1.0000 0.44731  0.98098  0.52508  Biso   1.000  N 
  N15      1.0000 0.60740  0.05580  0.50812  Biso   1.000  N 
  N16      1.0000 0.05705  0.48104  0.02704  Biso   1.000  N 
