data_image0
_cell_length_a       7.51149
_cell_length_b       34.872
_cell_length_c       6.95122
_cell_angle_alpha    89.8905
_cell_angle_beta     90.2697
_cell_angle_gamma    89.9927

_symmetry_space_group_name_H-M    "P 1"
_symmetry_int_tables_number       1

loop_
  _symmetry_equiv_pos_as_xyz
  'x, y, z'

loop_
  _atom_site_label
  _atom_site_occupancy
  _atom_site_fract_x
  _atom_site_fract_y
  _atom_site_fract_z
  _atom_site_thermal_displace_type
  _atom_site_B_iso_or_equiv
  _atom_site_type_symbol
  C1       1.0000 0.27089  0.11604  0.90225  Biso   1.000  C 
  C2       1.0000 0.74060  0.73119  0.91844  Biso   1.000  C 
  C3       1.0000 0.73186  0.35209  0.44163  Biso   1.000  C 
  C4       1.0000 0.27041  0.38763  0.94919  Biso   1.000  C 
  C5       1.0000 0.86414  0.44666  0.59455  Biso   1.000  C 
  C6       1.0000 0.77063  0.88764  0.94930  Biso   1.000  C 
  C7       1.0000 0.77093  0.15511  0.40778  Biso   1.000  C 
  C8       1.0000 0.75286  0.95469  0.80455  Biso   1.000  C 
  C9       1.0000 0.25272  0.45469  0.80452  Biso   1.000  C 
  C10      1.0000 0.27694  0.69013  0.41145  Biso   1.000  C 
  C11      1.0000 0.66211  0.29086  0.28162  Biso   1.000  C 
  C12      1.0000 0.16206  0.79087  0.28171  Biso   1.000  C 
  C13      1.0000 0.67636  0.25125  0.27318  Biso   1.000  C 
  C14      1.0000 0.17629  0.75125  0.27327  Biso   1.000  C 
  C15      1.0000 0.13939  0.44691  0.09657  Biso   1.000  C 
  C16      1.0000 0.27082  0.65511  0.40778  Biso   1.000  C 
  C17      1.0000 0.84780  0.25137  0.57093  Biso   1.000  C 
  C18      1.0000 0.34775  0.75137  0.57101  Biso   1.000  C 
  C19      1.0000 0.83356  0.29099  0.57937  Biso   1.000  C 
  C20      1.0000 0.33353  0.79099  0.57945  Biso   1.000  C 
  C21      1.0000 0.74055  0.31160  0.43480  Biso   1.000  C 
  C22      1.0000 0.86425  0.59613  0.75771  Biso   1.000  C 
  C23      1.0000 0.36433  0.09613  0.75772  Biso   1.000  C 
  C24      1.0000 0.77082  0.61605  0.90223  Biso   1.000  C 
  C25      1.0000 0.24053  0.81160  0.43488  Biso   1.000  C 
  C26      1.0000 0.75074  0.58851  0.04978  Biso   1.000  C 
  C27      1.0000 0.25082  0.08850  0.04979  Biso   1.000  C 
  C28      1.0000 0.23641  0.88713  0.44546  Biso   1.000  C 
  C29      1.0000 0.73640  0.38713  0.44541  Biso   1.000  C 
  C30      1.0000 0.77701  0.19013  0.41140  Biso   1.000  C 
  C31      1.0000 0.63956  0.94692  0.09661  Biso   1.000  C 
  C32      1.0000 0.17624  0.29135  0.08094  Biso   1.000  C 
  C33      1.0000 0.73413  0.92717  0.95237  Biso   1.000  C 
  C34      1.0000 0.23641  0.15565  0.90582  Biso   1.000  C 
  C35      1.0000 0.23395  0.42716  0.95232  Biso   1.000  C 
  C36      1.0000 0.76921  0.23064  0.41786  Biso   1.000  C 
  C37      1.0000 0.26916  0.73064  0.41793  Biso   1.000  C 
  C38      1.0000 0.36422  0.94666  0.59455  Biso   1.000  C 
  C39      1.0000 0.73638  0.65567  0.90580  Biso   1.000  C 
  C40      1.0000 0.23185  0.19068  0.91045  Biso   1.000  C 
  C41      1.0000 0.67638  0.79136  0.08104  Biso   1.000  C 
  C42      1.0000 0.16222  0.25174  0.07143  Biso   1.000  C 
  C43      1.0000 0.23416  0.61558  0.40438  Biso   1.000  C 
  C44      1.0000 0.73428  0.11558  0.40439  Biso   1.000  C 
  C45      1.0000 0.13930  0.59590  0.25916  Biso   1.000  C 
  C46      1.0000 0.63942  0.09590  0.25917  Biso   1.000  C 
  C47      1.0000 0.66231  0.75175  0.07148  Biso   1.000  C 
  C48      1.0000 0.24051  0.23117  0.91839  Biso   1.000  C 
  C49      1.0000 0.25307  0.58801  0.55211  Biso   1.000  C 
  C50      1.0000 0.33329  0.25193  0.77516  Biso   1.000  C 
  C51      1.0000 0.83343  0.75195  0.77524  Biso   1.000  C 
  C52      1.0000 0.34733  0.29154  0.78466  Biso   1.000  C 
  C53      1.0000 0.84751  0.79156  0.78480  Biso   1.000  C 
  C54      1.0000 0.26874  0.31211  0.93752  Biso   1.000  C 
  C55      1.0000 0.76892  0.81213  0.93766  Biso   1.000  C 
  C56      1.0000 0.27644  0.35261  0.94498  Biso   1.000  C 
  C57      1.0000 0.77667  0.85262  0.94512  Biso   1.000  C 
  C58      1.0000 0.73188  0.69070  0.91046  Biso   1.000  C 
  C59      1.0000 0.25091  0.95427  0.30123  Biso   1.000  C 
  C60      1.0000 0.75082  0.45427  0.30123  Biso   1.000  C 
  C61      1.0000 0.27090  0.92674  0.44902  Biso   1.000  C 
  C62      1.0000 0.77084  0.42674  0.44902  Biso   1.000  C 
  C63      1.0000 0.23185  0.85209  0.44169  Biso   1.000  C 
  C64      1.0000 0.75319  0.08801  0.55214  Biso   1.000  C 
  Co1      1.0000 0.03731  0.52136  0.67706  Biso   1.000  Co
  Co2      1.0000 0.53738  0.02136  0.67703  Biso   1.000  Co
  Co3      1.0000 0.96348  0.52141  0.17670  Biso   1.000  Co
  Co4      1.0000 0.46362  0.02142  0.17675  Biso   1.000  Co
  H1       1.0000 0.90746  0.43623  0.73434  Biso   1.000  H 
  H2       1.0000 0.61482  0.80683  0.19954  Biso   1.000  H 
  H3       1.0000 0.59632  0.10644  0.11951  Biso   1.000  H 
  H4       1.0000 0.09036  0.23615  0.18269  Biso   1.000  H 
  H5       1.0000 0.68987  0.45109  0.16019  Biso   1.000  H 
  H6       1.0000 0.18994  0.95109  0.16019  Biso   1.000  H 
  H7       1.0000 0.18979  0.09170  0.19018  Biso   1.000  H 
  H8       1.0000 0.09620  0.60644  0.11951  Biso   1.000  H 
  H9       1.0000 0.89500  0.73648  0.65674  Biso   1.000  H 
  H10      1.0000 0.39485  0.23646  0.65666  Biso   1.000  H 
  H11      1.0000 0.59041  0.73616  0.18271  Biso   1.000  H 
  H12      1.0000 0.31458  0.59104  0.69299  Biso   1.000  H 
  H13      1.0000 0.58995  0.30633  0.16943  Biso   1.000  H 
  H14      1.0000 0.91943  0.80715  0.67360  Biso   1.000  H 
  H15      1.0000 0.41924  0.30714  0.67345  Biso   1.000  H 
  H16      1.0000 0.59666  0.93643  0.23600  Biso   1.000  H 
  H17      1.0000 0.11455  0.73566  0.15469  Biso   1.000  H 
  H18      1.0000 0.41979  0.73590  0.68330  Biso   1.000  H 
  H19      1.0000 0.68972  0.59172  0.19016  Biso   1.000  H 
  H20      1.0000 0.40780  0.10657  0.61849  Biso   1.000  H 
  H21      1.0000 0.61461  0.23565  0.15460  Biso   1.000  H 
  H22      1.0000 0.81468  0.09104  0.69301  Biso   1.000  H 
  H23      1.0000 0.90772  0.60657  0.61846  Biso   1.000  H 
  H24      1.0000 0.31393  0.45159  0.66416  Biso   1.000  H 
  H25      1.0000 0.40751  0.93623  0.73434  Biso   1.000  H 
  H26      1.0000 0.89525  0.30658  0.69800  Biso   1.000  H 
  H27      1.0000 0.09650  0.43643  0.23597  Biso   1.000  H 
  H28      1.0000 0.08991  0.80634  0.16952  Biso   1.000  H 
  H29      1.0000 0.81411  0.95160  0.66420  Biso   1.000  H 
  H30      1.0000 0.11468  0.30682  0.19944  Biso   1.000  H 
  H31      1.0000 0.91982  0.23590  0.68323  Biso   1.000  H 
  H32      1.0000 0.39522  0.80658  0.69808  Biso   1.000  H 
  N1       1.0000 0.40097  0.06022  0.81769  Biso   1.000  N 
  N2       1.0000 0.67095  0.05513  0.50055  Biso   1.000  N 
  N3       1.0000 0.17085  0.55513  0.50052  Biso   1.000  N 
  N4       1.0000 0.60112  0.98271  0.03623  Biso   1.000  N 
  N5       1.0000 0.67084  0.98760  0.85516  Biso   1.000  N 
  N6       1.0000 0.83106  0.55543  0.99881  Biso   1.000  N 
  N7       1.0000 0.90086  0.56023  0.81768  Biso   1.000  N 
  N8       1.0000 0.60098  0.06010  0.31893  Biso   1.000  N 
  N9       1.0000 0.33114  0.98736  0.35307  Biso   1.000  N 
  N10      1.0000 0.83103  0.48736  0.35309  Biso   1.000  N 
  N11      1.0000 0.90073  0.48256  0.53497  Biso   1.000  N 
  N12      1.0000 0.33115  0.05542  0.99882  Biso   1.000  N 
  N13      1.0000 0.40083  0.98256  0.53496  Biso   1.000  N 
  N14      1.0000 0.17072  0.48760  0.85515  Biso   1.000  N 
  N15      1.0000 0.10086  0.56010  0.31891  Biso   1.000  N 
  N16      1.0000 0.10099  0.48270  0.03621  Biso   1.000  N 
