data_image0
_cell_length_a       25.0203
_cell_length_b       27.2174
_cell_length_c       6.8027
_cell_angle_alpha    99.753
_cell_angle_beta     90.0023
_cell_angle_gamma    89.9998

_symmetry_space_group_name_H-M    "P 1"
_symmetry_int_tables_number       1

loop_
  _symmetry_equiv_pos_as_xyz
  'x, y, z'

loop_
  _atom_site_label
  _atom_site_occupancy
  _atom_site_fract_x
  _atom_site_fract_y
  _atom_site_fract_z
  _atom_site_thermal_displace_type
  _atom_site_B_iso_or_equiv
  _atom_site_type_symbol
  C1       1.0000 0.40011  0.12335  0.93144  Biso   1.000  C 
  C2       1.0000 0.79171  0.73338  0.93120  Biso   1.000  C 
  C3       1.0000 0.82916  0.34811  0.42237  Biso   1.000  C 
  C4       1.0000 0.14375  0.38119  0.92161  Biso   1.000  C 
  C5       1.0000 0.93938  0.43564  0.56698  Biso   1.000  C 
  C6       1.0000 0.64419  0.88149  0.92158  Biso   1.000  C 
  C7       1.0000 0.64375  0.16145  0.43200  Biso   1.000  C 
  C8       1.0000 0.59858  0.95047  0.77682  Biso   1.000  C 
  C9       1.0000 0.09828  0.45036  0.77763  Biso   1.000  C 
  C10      1.0000 0.17687  0.69456  0.43270  Biso   1.000  C 
  C11      1.0000 0.75560  0.29594  0.26274  Biso   1.000  C 
  C12      1.0000 0.25578  0.79574  0.26255  Biso   1.000  C 
  C13      1.0000 0.71827  0.25840  0.26552  Biso   1.000  C 
  C14      1.0000 0.21848  0.75820  0.26561  Biso   1.000  C 
  C15      1.0000 0.06645  0.43555  0.06694  Biso   1.000  C 
  C16      1.0000 0.14393  0.66141  0.43338  Biso   1.000  C 
  C17      1.0000 0.75025  0.24679  0.59160  Biso   1.000  C 
  C18      1.0000 0.25044  0.74681  0.59199  Biso   1.000  C 
  C19      1.0000 0.78757  0.28433  0.58884  Biso   1.000  C 
  C20      1.0000 0.28776  0.78435  0.58891  Biso   1.000  C 
  C21      1.0000 0.79111  0.30978  0.42442  Biso   1.000  C 
  C22      1.0000 0.93965  0.60721  0.78830  Biso   1.000  C 
  C23      1.0000 0.43956  0.10708  0.78659  Biso   1.000  C 
  C24      1.0000 0.90027  0.62354  0.93336  Biso   1.000  C 
  C25      1.0000 0.29127  0.80969  0.42420  Biso   1.000  C 
  C26      1.0000 0.90781  0.59246  0.07768  Biso   1.000  C 
  C27      1.0000 0.40765  0.09226  0.07577  Biso   1.000  C 
  C28      1.0000 0.36217  0.88121  0.42086  Biso   1.000  C 
  C29      1.0000 0.86205  0.38130  0.42186  Biso   1.000  C 
  C30      1.0000 0.67668  0.19463  0.43184  Biso   1.000  C 
  C31      1.0000 0.56668  0.93565  0.06602  Biso   1.000  C 
  C32      1.0000 0.21838  0.28433  0.08834  Biso   1.000  C 
  C33      1.0000 0.60621  0.91949  0.92143  Biso   1.000  C 
  C34      1.0000 0.36223  0.16147  0.93176  Biso   1.000  C 
  C35      1.0000 0.10587  0.41930  0.92199  Biso   1.000  C 
  C36      1.0000 0.71473  0.23296  0.42994  Biso   1.000  C 
  C37      1.0000 0.21493  0.73287  0.43038  Biso   1.000  C 
  C38      1.0000 0.43949  0.93556  0.56570  Biso   1.000  C 
  C39      1.0000 0.86251  0.66175  0.93385  Biso   1.000  C 
  C40      1.0000 0.32927  0.19460  0.93136  Biso   1.000  C 
  C41      1.0000 0.71888  0.78483  0.08967  Biso   1.000  C 
  C42      1.0000 0.25573  0.24680  0.09112  Biso   1.000  C 
  C43      1.0000 0.10605  0.62331  0.43311  Biso   1.000  C 
  C44      1.0000 0.60591  0.12331  0.43160  Biso   1.000  C 
  C45      1.0000 0.06663  0.60706  0.28810  Biso   1.000  C 
  C46      1.0000 0.56644  0.10709  0.28679  Biso   1.000  C 
  C47      1.0000 0.75620  0.74730  0.09278  Biso   1.000  C 
  C48      1.0000 0.29117  0.23290  0.92930  Biso   1.000  C 
  C49      1.0000 0.09843  0.59225  0.57747  Biso   1.000  C 
  C50      1.0000 0.28754  0.25827  0.76470  Biso   1.000  C 
  C51      1.0000 0.78821  0.75874  0.76654  Biso   1.000  C 
  C52      1.0000 0.25021  0.29580  0.76192  Biso   1.000  C 
  C53      1.0000 0.75088  0.79626  0.76339  Biso   1.000  C 
  C54      1.0000 0.21477  0.30971  0.92377  Biso   1.000  C 
  C55      1.0000 0.71535  0.81017  0.92493  Biso   1.000  C 
  C56      1.0000 0.17671  0.34804  0.92178  Biso   1.000  C 
  C57      1.0000 0.67723  0.84843  0.92240  Biso   1.000  C 
  C58      1.0000 0.82969  0.69501  0.93338  Biso   1.000  C 
  C59      1.0000 0.40761  0.95036  0.27644  Biso   1.000  C 
  C60      1.0000 0.90752  0.45048  0.27773  Biso   1.000  C 
  C61      1.0000 0.40003  0.91932  0.42091  Biso   1.000  C 
  C62      1.0000 0.89992  0.41942  0.42211  Biso   1.000  C 
  C63      1.0000 0.32928  0.84804  0.42176  Biso   1.000  C 
  C64      1.0000 0.59839  0.09219  0.57580  Biso   1.000  C 
  Co1      1.0000 0.01421  0.52131  0.67763  Biso   1.000  Co
  Co2      1.0000 0.51428  0.02124  0.67622  Biso   1.000  Co
  Co3      1.0000 0.99175  0.52137  0.17757  Biso   1.000  Co
  Co4      1.0000 0.49174  0.02124  0.17610  Biso   1.000  Co
  H1       1.0000 0.94805  0.42229  0.70520  Biso   1.000  H 
  H2       1.0000 0.69165  0.79512  0.21497  Biso   1.000  H 
  H3       1.0000 0.55770  0.12047  0.14869  Biso   1.000  H 
  H4       1.0000 0.25795  0.22752  0.21888  Biso   1.000  H 
  H5       1.0000 0.88615  0.45075  0.13904  Biso   1.000  H 
  H6       1.0000 0.38624  0.95061  0.13774  Biso   1.000  H 
  H7       1.0000 0.38628  0.09200  0.21447  Biso   1.000  H 
  H8       1.0000 0.05798  0.62040  0.14983  Biso   1.000  H 
  H9       1.0000 0.81545  0.74845  0.64126  Biso   1.000  H 
  H10      1.0000 0.31469  0.24798  0.63917  Biso   1.000  H 
  H11      1.0000 0.75835  0.72803  0.22058  Biso   1.000  H 
  H12      1.0000 0.11978  0.59200  0.71623  Biso   1.000  H 
  H13      1.0000 0.75776  0.31527  0.13511  Biso   1.000  H 
  H14      1.0000 0.74874  0.81553  0.63556  Biso   1.000  H 
  H15      1.0000 0.24798  0.31508  0.63414  Biso   1.000  H 
  H16      1.0000 0.55798  0.92232  0.20425  Biso   1.000  H 
  H17      1.0000 0.19128  0.74787  0.14022  Biso   1.000  H 
  H18      1.0000 0.24828  0.72756  0.71985  Biso   1.000  H 
  H19      1.0000 0.88648  0.59224  0.21648  Biso   1.000  H 
  H20      1.0000 0.44826  0.12042  0.64838  Biso   1.000  H 
  H21      1.0000 0.69105  0.24818  0.14017  Biso   1.000  H 
  H22      1.0000 0.61980  0.09191  0.71441  Biso   1.000  H 
  H23      1.0000 0.94833  0.62054  0.65004  Biso   1.000  H 
  H24      1.0000 0.11964  0.45059  0.63889  Biso   1.000  H 
  H25      1.0000 0.44818  0.92223  0.70394  Biso   1.000  H 
  H26      1.0000 0.81480  0.29455  0.71421  Biso   1.000  H 
  H27      1.0000 0.05776  0.42220  0.20514  Biso   1.000  H 
  H28      1.0000 0.25793  0.81501  0.13474  Biso   1.000  H 
  H29      1.0000 0.61999  0.95073  0.63821  Biso   1.000  H 
  H30      1.0000 0.19120  0.29458  0.21380  Biso   1.000  H 
  H31      1.0000 0.74808  0.22747  0.71924  Biso   1.000  H 
  H32      1.0000 0.31498  0.79464  0.71425  Biso   1.000  H 
  N1       1.0000 0.46785  0.06952  0.84154  Biso   1.000  N 
  N2       1.0000 0.55793  0.06027  0.51987  Biso   1.000  N 
  N3       1.0000 0.05797  0.56034  0.52146  Biso   1.000  N 
  N4       1.0000 0.53825  0.97308  0.01069  Biso   1.000  N 
  N5       1.0000 0.55800  0.98228  0.83237  Biso   1.000  N 
  N6       1.0000 0.94818  0.56045  0.02154  Biso   1.000  N 
  N7       1.0000 0.96789  0.56961  0.84312  Biso   1.000  N 
  N8       1.0000 0.53815  0.06952  0.34165  Biso   1.000  N 
  N9       1.0000 0.44809  0.98225  0.33225  Biso   1.000  N 
  N10      1.0000 0.94800  0.48238  0.33367  Biso   1.000  N 
  N11      1.0000 0.96771  0.47317  0.51203  Biso   1.000  N 
  N12      1.0000 0.44810  0.06032  0.01986  Biso   1.000  N 
  N13      1.0000 0.46783  0.97307  0.51061  Biso   1.000  N 
  N14      1.0000 0.05784  0.48228  0.83362  Biso   1.000  N 
  N15      1.0000 0.03828  0.56954  0.34304  Biso   1.000  N 
  N16      1.0000 0.03813  0.47309  0.01200  Biso   1.000  N 
