data_image0
_cell_length_a       21.3719
_cell_length_b       30.1908
_cell_length_c       6.45734
_cell_angle_alpha    101.715
_cell_angle_beta     90.1407
_cell_angle_gamma    90.0004

_symmetry_space_group_name_H-M    "P 1"
_symmetry_int_tables_number       1

loop_
  _symmetry_equiv_pos_as_xyz
  'x, y, z'

loop_
  _atom_site_label
  _atom_site_occupancy
  _atom_site_fract_x
  _atom_site_fract_y
  _atom_site_fract_z
  _atom_site_thermal_displace_type
  _atom_site_B_iso_or_equiv
  _atom_site_type_symbol
  C1       1.0000 0.39356  0.12083  0.93473  Biso   1.000  C 
  C2       1.0000 0.82409  0.34998  0.41722  Biso   1.000  C 
  C3       1.0000 0.15024  0.38363  0.91834  Biso   1.000  C 
  C4       1.0000 0.94112  0.43884  0.56327  Biso   1.000  C 
  C5       1.0000 0.65043  0.88374  0.91837  Biso   1.000  C 
  C6       1.0000 0.65011  0.15915  0.43735  Biso   1.000  C 
  C7       1.0000 0.15011  0.65914  0.43773  Biso   1.000  C 
  C8       1.0000 0.61364  0.95211  0.77847  Biso   1.000  C 
  C9       1.0000 0.11348  0.45199  0.77842  Biso   1.000  C 
  C10      1.0000 0.18148  0.69288  0.43538  Biso   1.000  C 
  C11      1.0000 0.74715  0.29275  0.25344  Biso   1.000  C 
  C12      1.0000 0.24727  0.79271  0.25388  Biso   1.000  C 
  C13      1.0000 0.71239  0.25419  0.25810  Biso   1.000  C 
  C14      1.0000 0.21244  0.75418  0.25857  Biso   1.000  C 
  C15      1.0000 0.06483  0.43880  0.06429  Biso   1.000  C 
  C16      1.0000 0.68147  0.19289  0.43499  Biso   1.000  C 
  C17      1.0000 0.75833  0.25015  0.59847  Biso   1.000  C 
  C18      1.0000 0.25841  0.75008  0.59881  Biso   1.000  C 
  C19      1.0000 0.79309  0.28870  0.59383  Biso   1.000  C 
  C20      1.0000 0.29324  0.78861  0.59415  Biso   1.000  C 
  C21      1.0000 0.78829  0.31082  0.42122  Biso   1.000  C 
  C22      1.0000 0.94147  0.60391  0.79026  Biso   1.000  C 
  C23      1.0000 0.44141  0.10386  0.78982  Biso   1.000  C 
  C24      1.0000 0.89366  0.62090  0.93528  Biso   1.000  C 
  C25      1.0000 0.28845  0.81074  0.42157  Biso   1.000  C 
  C26      1.0000 0.89291  0.59071  0.07626  Biso   1.000  C 
  C27      1.0000 0.39284  0.09067  0.07582  Biso   1.000  C 
  C28      1.0000 0.35581  0.88358  0.41581  Biso   1.000  C 
  C29      1.0000 0.85562  0.38368  0.41583  Biso   1.000  C 
  C30      1.0000 0.61295  0.92197  0.91966  Biso   1.000  C 
  C31      1.0000 0.56494  0.93886  0.06413  Biso   1.000  C 
  C32      1.0000 0.78900  0.73212  0.93228  Biso   1.000  C 
  C33      1.0000 0.11278  0.42187  0.91969  Biso   1.000  C 
  C34      1.0000 0.35612  0.15910  0.93648  Biso   1.000  C 
  C35      1.0000 0.71720  0.23206  0.43069  Biso   1.000  C 
  C36      1.0000 0.21725  0.73204  0.43109  Biso   1.000  C 
  C37      1.0000 0.44127  0.93879  0.56304  Biso   1.000  C 
  C38      1.0000 0.85628  0.65921  0.93720  Biso   1.000  C 
  C39      1.0000 0.32455  0.19278  0.93501  Biso   1.000  C 
  C40      1.0000 0.11362  0.59067  0.57730  Biso   1.000  C 
  C41      1.0000 0.71312  0.78853  0.09595  Biso   1.000  C 
  C42      1.0000 0.24764  0.24976  0.09922  Biso   1.000  C 
  C43      1.0000 0.11277  0.62083  0.43611  Biso   1.000  C 
  C44      1.0000 0.61275  0.12084  0.43580  Biso   1.000  C 
  C45      1.0000 0.06480  0.60383  0.29088  Biso   1.000  C 
  C46      1.0000 0.56476  0.10385  0.29064  Biso   1.000  C 
  C47      1.0000 0.74795  0.74997  0.09991  Biso   1.000  C 
  C48      1.0000 0.28872  0.23195  0.93163  Biso   1.000  C 
  C49      1.0000 0.61361  0.09069  0.57698  Biso   1.000  C 
  C50      1.0000 0.29344  0.25439  0.76009  Biso   1.000  C 
  C51      1.0000 0.79369  0.75451  0.76061  Biso   1.000  C 
  C52      1.0000 0.25865  0.29297  0.75633  Biso   1.000  C 
  C53      1.0000 0.75888  0.79307  0.75664  Biso   1.000  C 
  C54      1.0000 0.21757  0.31078  0.92395  Biso   1.000  C 
  C55      1.0000 0.71781  0.81092  0.92423  Biso   1.000  C 
  C56      1.0000 0.18176  0.34995  0.92035  Biso   1.000  C 
  C57      1.0000 0.68196  0.85007  0.92044  Biso   1.000  C 
  C58      1.0000 0.21285  0.28834  0.09545  Biso   1.000  C 
  C59      1.0000 0.39254  0.95199  0.27657  Biso   1.000  C 
  C60      1.0000 0.89243  0.45211  0.27686  Biso   1.000  C 
  C61      1.0000 0.39328  0.92184  0.41774  Biso   1.000  C 
  C62      1.0000 0.89311  0.42194  0.41795  Biso   1.000  C 
  C63      1.0000 0.32428  0.84988  0.41749  Biso   1.000  C 
  C64      1.0000 0.82480  0.69293  0.93578  Biso   1.000  C 
  Co1      1.0000 0.52202  0.02133  0.67682  Biso   1.000  Co
  Co2      1.0000 0.02199  0.52132  0.67702  Biso   1.000  Co
  Co3      1.0000 0.48418  0.02126  0.17673  Biso   1.000  Co
  Co4      1.0000 0.98421  0.52128  0.17690  Biso   1.000  Co
  H1       1.0000 0.68153  0.80196  0.22587  Biso   1.000  H 
  H2       1.0000 0.54823  0.11640  0.15421  Biso   1.000  H 
  H3       1.0000 0.24349  0.23273  0.23218  Biso   1.000  H 
  H4       1.0000 0.36379  0.09126  0.21402  Biso   1.000  H 
  H5       1.0000 0.86327  0.45159  0.13849  Biso   1.000  H 
  H6       1.0000 0.36338  0.95144  0.13818  Biso   1.000  H 
  H7       1.0000 0.54852  0.92629  0.20042  Biso   1.000  H 
  H8       1.0000 0.04827  0.61637  0.15443  Biso   1.000  H 
  H9       1.0000 0.26278  0.30998  0.62330  Biso   1.000  H 
  H10      1.0000 0.82523  0.74106  0.63060  Biso   1.000  H 
  H11      1.0000 0.32498  0.24096  0.63004  Biso   1.000  H 
  H12      1.0000 0.74384  0.73300  0.23307  Biso   1.000  H 
  H13      1.0000 0.14279  0.59128  0.71574  Biso   1.000  H 
  H14      1.0000 0.74295  0.30953  0.11963  Biso   1.000  H 
  H15      1.0000 0.76298  0.81004  0.62348  Biso   1.000  H 
  H16      1.0000 0.95754  0.42627  0.69981  Biso   1.000  H 
  H17      1.0000 0.86386  0.59129  0.21445  Biso   1.000  H 
  H18      1.0000 0.76253  0.23336  0.73226  Biso   1.000  H 
  H19      1.0000 0.45784  0.11643  0.65355  Biso   1.000  H 
  H20      1.0000 0.68077  0.24057  0.12798  Biso   1.000  H 
  H21      1.0000 0.64279  0.09128  0.71538  Biso   1.000  H 
  H22      1.0000 0.45772  0.92623  0.69957  Biso   1.000  H 
  H23      1.0000 0.95790  0.61648  0.65399  Biso   1.000  H 
  H24      1.0000 0.14259  0.45143  0.64043  Biso   1.000  H 
  H25      1.0000 0.18079  0.74059  0.12851  Biso   1.000  H 
  H26      1.0000 0.26261  0.73328  0.73257  Biso   1.000  H 
  H27      1.0000 0.82468  0.30234  0.72398  Biso   1.000  H 
  H28      1.0000 0.04841  0.42624  0.20062  Biso   1.000  H 
  H29      1.0000 0.24308  0.80949  0.12008  Biso   1.000  H 
  H30      1.0000 0.64280  0.95159  0.64060  Biso   1.000  H 
  H31      1.0000 0.18126  0.30175  0.22538  Biso   1.000  H 
  H32      1.0000 0.32486  0.80221  0.72426  Biso   1.000  H 
  N1       1.0000 0.96661  0.56675  0.84231  Biso   1.000  N 
  N2       1.0000 0.06984  0.55845  0.51871  Biso   1.000  N 
  N3       1.0000 0.53966  0.97592  0.01157  Biso   1.000  N 
  N4       1.0000 0.56977  0.98422  0.83627  Biso   1.000  N 
  N5       1.0000 0.93658  0.55848  0.01781  Biso   1.000  N 
  N6       1.0000 0.46659  0.06673  0.84202  Biso   1.000  N 
  N7       1.0000 0.06965  0.48414  0.83629  Biso   1.000  N 
  N8       1.0000 0.03966  0.56670  0.34295  Biso   1.000  N 
  N9       1.0000 0.53962  0.06673  0.34272  Biso   1.000  N 
  N10      1.0000 0.43640  0.98415  0.33515  Biso   1.000  N 
  N11      1.0000 0.93633  0.48423  0.33545  Biso   1.000  N 
  N12      1.0000 0.96644  0.47591  0.51121  Biso   1.000  N 
  N13      1.0000 0.43655  0.05846  0.01751  Biso   1.000  N 
  N14      1.0000 0.46652  0.97588  0.51095  Biso   1.000  N 
  N15      1.0000 0.56982  0.05847  0.51844  Biso   1.000  N 
  N16      1.0000 0.03958  0.47586  0.01172  Biso   1.000  N 
