data_image0
_cell_length_a       25.6412
_cell_length_b       26.5815
_cell_length_c       7.07238
_cell_angle_alpha    95.2456
_cell_angle_beta     89.9656
_cell_angle_gamma    90

_symmetry_space_group_name_H-M    "P 1"
_symmetry_int_tables_number       1

loop_
  _symmetry_equiv_pos_as_xyz
  'x, y, z'

loop_
  _atom_site_label
  _atom_site_occupancy
  _atom_site_fract_x
  _atom_site_fract_y
  _atom_site_fract_z
  _atom_site_thermal_displace_type
  _atom_site_B_iso_or_equiv
  _atom_site_type_symbol
  C1       1.0000 0.40102  0.12309  0.92534  Biso   1.000  C 
  C2       1.0000 0.10537  0.41938  0.92820  Biso   1.000  C 
  C3       1.0000 0.71415  0.23308  0.42753  Biso   1.000  C 
  C4       1.0000 0.21429  0.73295  0.42723  Biso   1.000  C 
  C5       1.0000 0.43545  0.93653  0.57505  Biso   1.000  C 
  C6       1.0000 0.86350  0.66171  0.92616  Biso   1.000  C 
  C7       1.0000 0.33005  0.19450  0.92644  Biso   1.000  C 
  C8       1.0000 0.72224  0.78265  0.08758  Biso   1.000  C 
  C9       1.0000 0.25934  0.24454  0.08693  Biso   1.000  C 
  C10      1.0000 0.10507  0.62313  0.42538  Biso   1.000  C 
  C11      1.0000 0.60498  0.12322  0.42552  Biso   1.000  C 
  C12      1.0000 0.07049  0.60589  0.27827  Biso   1.000  C 
  C13      1.0000 0.57040  0.10598  0.27840  Biso   1.000  C 
  C14      1.0000 0.75979  0.74508  0.08762  Biso   1.000  C 
  C15      1.0000 0.29174  0.23285  0.92696  Biso   1.000  C 
  C16      1.0000 0.09263  0.59282  0.57308  Biso   1.000  C 
  C17      1.0000 0.28477  0.26055  0.76731  Biso   1.000  C 
  C18      1.0000 0.78530  0.76100  0.76801  Biso   1.000  C 
  C19      1.0000 0.24722  0.29812  0.76751  Biso   1.000  C 
  C20      1.0000 0.74775  0.79857  0.76795  Biso   1.000  C 
  C21      1.0000 0.21483  0.30982  0.92750  Biso   1.000  C 
  C22      1.0000 0.71530  0.81028  0.92776  Biso   1.000  C 
  C23      1.0000 0.17651  0.34816  0.92793  Biso   1.000  C 
  C24      1.0000 0.67691  0.84855  0.92795  Biso   1.000  C 
  C25      1.0000 0.41323  0.94965  0.28038  Biso   1.000  C 
  C26      1.0000 0.91317  0.44970  0.28042  Biso   1.000  C 
  C27      1.0000 0.40068  0.91946  0.42834  Biso   1.000  C 
  C28      1.0000 0.90059  0.41953  0.42843  Biso   1.000  C 
  C29      1.0000 0.32946  0.84831  0.42799  Biso   1.000  C 
  C30      1.0000 0.59256  0.09289  0.57317  Biso   1.000  C 
  C31      1.0000 0.36313  0.16133  0.92554  Biso   1.000  C 
  C32      1.0000 0.60555  0.91958  0.92835  Biso   1.000  C 
  C33      1.0000 0.83048  0.69494  0.92733  Biso   1.000  C 
  C34      1.0000 0.57081  0.93670  0.07524  Biso   1.000  C 
  C35      1.0000 0.22179  0.28212  0.08715  Biso   1.000  C 
  C36      1.0000 0.79222  0.73333  0.92777  Biso   1.000  C 
  C37      1.0000 0.82931  0.34843  0.42812  Biso   1.000  C 
  C38      1.0000 0.14340  0.38129  0.92844  Biso   1.000  C 
  C39      1.0000 0.93536  0.43661  0.57513  Biso   1.000  C 
  C40      1.0000 0.64368  0.88157  0.92858  Biso   1.000  C 
  C41      1.0000 0.59292  0.94967  0.78022  Biso   1.000  C 
  C42      1.0000 0.09282  0.44952  0.78013  Biso   1.000  C 
  C43      1.0000 0.17601  0.69457  0.42670  Biso   1.000  C 
  C44      1.0000 0.75860  0.29840  0.26797  Biso   1.000  C 
  C45      1.0000 0.25878  0.79826  0.26773  Biso   1.000  C 
  C46      1.0000 0.72109  0.26079  0.26788  Biso   1.000  C 
  C47      1.0000 0.22126  0.76067  0.26758  Biso   1.000  C 
  C48      1.0000 0.07063  0.43654  0.07506  Biso   1.000  C 
  C49      1.0000 0.64284  0.16148  0.42585  Biso   1.000  C 
  C50      1.0000 0.74652  0.24481  0.58742  Biso   1.000  C 
  C51      1.0000 0.24664  0.74467  0.58715  Biso   1.000  C 
  C52      1.0000 0.78402  0.28242  0.58752  Biso   1.000  C 
  C53      1.0000 0.28416  0.78228  0.58733  Biso   1.000  C 
  C54      1.0000 0.79098  0.31011  0.42782  Biso   1.000  C 
  C55      1.0000 0.93583  0.60601  0.77843  Biso   1.000  C 
  C56      1.0000 0.43557  0.10578  0.77809  Biso   1.000  C 
  C57      1.0000 0.90131  0.62338  0.92575  Biso   1.000  C 
  C58      1.0000 0.67590  0.19468  0.42700  Biso   1.000  C 
  C59      1.0000 0.29114  0.80997  0.42765  Biso   1.000  C 
  C60      1.0000 0.91371  0.59309  0.07350  Biso   1.000  C 
  C61      1.0000 0.41350  0.09288  0.07323  Biso   1.000  C 
  C62      1.0000 0.36261  0.88140  0.42859  Biso   1.000  C 
  C63      1.0000 0.86250  0.38149  0.42871  Biso   1.000  C 
  C64      1.0000 0.14295  0.66139  0.42567  Biso   1.000  C 
  Co1      1.0000 0.49639  0.02114  0.17642  Biso   1.000  Co
  Co2      1.0000 0.99640  0.52112  0.17640  Biso   1.000  Co
  Co3      1.0000 0.00975  0.52105  0.67633  Biso   1.000  Co
  Co4      1.0000 0.50974  0.02105  0.67629  Biso   1.000  Co
  H1       1.0000 0.89691  0.59369  0.21463  Biso   1.000  H 
  H2       1.0000 0.43963  0.11833  0.63700  Biso   1.000  H 
  H3       1.0000 0.69633  0.25231  0.14381  Biso   1.000  H 
  H4       1.0000 0.60940  0.09341  0.71415  Biso   1.000  H 
  H5       1.0000 0.93993  0.61859  0.63739  Biso   1.000  H 
  H6       1.0000 0.10971  0.44901  0.63916  Biso   1.000  H 
  H7       1.0000 0.43955  0.92393  0.71603  Biso   1.000  H 
  H8       1.0000 0.30889  0.79075  0.71148  Biso   1.000  H 
  H9       1.0000 0.06654  0.42399  0.21614  Biso   1.000  H 
  H10      1.0000 0.26354  0.81935  0.14370  Biso   1.000  H 
  H11      1.0000 0.60978  0.94916  0.63921  Biso   1.000  H 
  H12      1.0000 0.19704  0.29059  0.21135  Biso   1.000  H 
  H13      1.0000 0.74178  0.22372  0.71145  Biso   1.000  H 
  H14      1.0000 0.24189  0.72357  0.71115  Biso   1.000  H 
  H15      1.0000 0.80878  0.29090  0.71160  Biso   1.000  H 
  H16      1.0000 0.19651  0.75220  0.14349  Biso   1.000  H 
  H17      1.0000 0.39670  0.09346  0.21435  Biso   1.000  H 
  H18      1.0000 0.24248  0.31920  0.64349  Biso   1.000  H 
  H19      1.0000 0.56677  0.92418  0.21639  Biso   1.000  H 
  H20      1.0000 0.93945  0.42401  0.71613  Biso   1.000  H 
  H21      1.0000 0.69744  0.79115  0.21164  Biso   1.000  H 
  H22      1.0000 0.56629  0.11863  0.13750  Biso   1.000  H 
  H23      1.0000 0.89626  0.44924  0.13957  Biso   1.000  H 
  H24      1.0000 0.39631  0.94921  0.13955  Biso   1.000  H 
  H25      1.0000 0.26409  0.22347  0.21097  Biso   1.000  H 
  H26      1.0000 0.81011  0.75252  0.64396  Biso   1.000  H 
  H27      1.0000 0.30954  0.25209  0.64315  Biso   1.000  H 
  H28      1.0000 0.76451  0.72403  0.21175  Biso   1.000  H 
  H29      1.0000 0.10947  0.59334  0.71406  Biso   1.000  H 
  H30      1.0000 0.76333  0.31949  0.14392  Biso   1.000  H 
  H31      1.0000 0.74304  0.81961  0.64382  Biso   1.000  H 
  H32      1.0000 0.06638  0.61853  0.13735  Biso   1.000  H 
  N1       1.0000 0.45209  0.98175  0.33559  Biso   1.000  N 
  N2       1.0000 0.05399  0.48168  0.83544  Biso   1.000  N 
  N3       1.0000 0.46583  0.97367  0.51797  Biso   1.000  N 
  N4       1.0000 0.45214  0.06055  0.01748  Biso   1.000  N 
  N5       1.0000 0.96576  0.47373  0.51803  Biso   1.000  N 
  N6       1.0000 0.95204  0.48179  0.33561  Biso   1.000  N 
  N7       1.0000 0.54024  0.06862  0.33497  Biso   1.000  N 
  N8       1.0000 0.46578  0.06849  0.83481  Biso   1.000  N 
  N9       1.0000 0.95226  0.56067  0.01760  Biso   1.000  N 
  N10      1.0000 0.55404  0.98176  0.83551  Biso   1.000  N 
  N11      1.0000 0.54037  0.97377  0.01811  Biso   1.000  N 
  N12      1.0000 0.05401  0.56049  0.51735  Biso   1.000  N 
  N13      1.0000 0.55394  0.06056  0.51742  Biso   1.000  N 
  N14      1.0000 0.04032  0.56854  0.33489  Biso   1.000  N 
  N15      1.0000 0.96593  0.56862  0.83497  Biso   1.000  N 
  N16      1.0000 0.04028  0.47368  0.01797  Biso   1.000  N 
