data_image0
_cell_length_a       8.24333
_cell_length_b       34.8452
_cell_length_c       6.92032
_cell_angle_alpha    90.3393
_cell_angle_beta     90.4286
_cell_angle_gamma    89.9717

_symmetry_space_group_name_H-M    "P 1"
_symmetry_int_tables_number       1

loop_
  _symmetry_equiv_pos_as_xyz
  'x, y, z'

loop_
  _atom_site_label
  _atom_site_occupancy
  _atom_site_fract_x
  _atom_site_fract_y
  _atom_site_fract_z
  _atom_site_thermal_displace_type
  _atom_site_B_iso_or_equiv
  _atom_site_type_symbol
  C1       1.0000 0.28982  0.11610  0.90394  Biso   1.000  C 
  C2       1.0000 0.74741  0.73120  0.91986  Biso   1.000  C 
  C3       1.0000 0.74576  0.35217  0.43933  Biso   1.000  C 
  C4       1.0000 0.25239  0.38793  0.94836  Biso   1.000  C 
  C5       1.0000 0.87762  0.44644  0.59290  Biso   1.000  C 
  C6       1.0000 0.75268  0.88795  0.94845  Biso   1.000  C 
  C7       1.0000 0.75229  0.15483  0.40886  Biso   1.000  C 
  C8       1.0000 0.73291  0.95491  0.80468  Biso   1.000  C 
  C9       1.0000 0.23278  0.45491  0.80459  Biso   1.000  C 
  C10      1.0000 0.26336  0.68981  0.41245  Biso   1.000  C 
  C11      1.0000 0.66666  0.29097  0.28474  Biso   1.000  C 
  C12      1.0000 0.16642  0.79099  0.28491  Biso   1.000  C 
  C13      1.0000 0.67429  0.25122  0.27711  Biso   1.000  C 
  C14      1.0000 0.17402  0.75124  0.27727  Biso   1.000  C 
  C15      1.0000 0.12613  0.44678  0.09527  Biso   1.000  C 
  C16      1.0000 0.25200  0.65483  0.40894  Biso   1.000  C 
  C17      1.0000 0.84420  0.25102  0.56612  Biso   1.000  C 
  C18      1.0000 0.34391  0.75102  0.56629  Biso   1.000  C 
  C19      1.0000 0.83654  0.29077  0.57377  Biso   1.000  C 
  C20      1.0000 0.33628  0.79077  0.57396  Biso   1.000  C 
  C21      1.0000 0.74779  0.31159  0.43322  Biso   1.000  C 
  C22      1.0000 0.87754  0.59642  0.75955  Biso   1.000  C 
  C23      1.0000 0.37755  0.09641  0.75959  Biso   1.000  C 
  C24      1.0000 0.78984  0.61611  0.90390  Biso   1.000  C 
  C25      1.0000 0.24757  0.81160  0.43342  Biso   1.000  C 
  C26      1.0000 0.77044  0.58842  0.05006  Biso   1.000  C 
  C27      1.0000 0.27051  0.08841  0.05014  Biso   1.000  C 
  C28      1.0000 0.25515  0.88719  0.44359  Biso   1.000  C 
  C29      1.0000 0.75520  0.38718  0.44345  Biso   1.000  C 
  C30      1.0000 0.76371  0.18980  0.41236  Biso   1.000  C 
  C31      1.0000 0.62629  0.94678  0.09538  Biso   1.000  C 
  C32      1.0000 0.17506  0.29138  0.07736  Biso   1.000  C 
  C33      1.0000 0.71537  0.92731  0.95153  Biso   1.000  C 
  C34      1.0000 0.25484  0.15559  0.90793  Biso   1.000  C 
  C35      1.0000 0.21519  0.42730  0.95143  Biso   1.000  C 
  C36      1.0000 0.76280  0.23039  0.41787  Biso   1.000  C 
  C37      1.0000 0.26249  0.73040  0.41802  Biso   1.000  C 
  C38      1.0000 0.37766  0.94645  0.59300  Biso   1.000  C 
  C39      1.0000 0.75494  0.65561  0.90796  Biso   1.000  C 
  C40      1.0000 0.24517  0.19059  0.91255  Biso   1.000  C 
  C41      1.0000 0.67537  0.79141  0.07745  Biso   1.000  C 
  C42      1.0000 0.16733  0.25165  0.06845  Biso   1.000  C 
  C43      1.0000 0.21465  0.61548  0.40557  Biso   1.000  C 
  C44      1.0000 0.71486  0.11548  0.40558  Biso   1.000  C 
  C45      1.0000 0.12552  0.59598  0.26030  Biso   1.000  C 
  C46      1.0000 0.62570  0.09597  0.26034  Biso   1.000  C 
  C47      1.0000 0.66763  0.75167  0.06853  Biso   1.000  C 
  C48      1.0000 0.24706  0.23117  0.91972  Biso   1.000  C 
  C49      1.0000 0.23240  0.58789  0.55280  Biso   1.000  C 
  C50      1.0000 0.33438  0.25216  0.78013  Biso   1.000  C 
  C51      1.0000 0.83485  0.75218  0.78037  Biso   1.000  C 
  C52      1.0000 0.34212  0.29190  0.78906  Biso   1.000  C 
  C53      1.0000 0.84261  0.79191  0.78928  Biso   1.000  C 
  C54      1.0000 0.26225  0.31237  0.93766  Biso   1.000  C 
  C55      1.0000 0.76264  0.81239  0.93780  Biso   1.000  C 
  C56      1.0000 0.26341  0.35295  0.94436  Biso   1.000  C 
  C57      1.0000 0.76377  0.85297  0.94448  Biso   1.000  C 
  C58      1.0000 0.74542  0.69061  0.91263  Biso   1.000  C 
  C59      1.0000 0.27098  0.95422  0.30020  Biso   1.000  C 
  C60      1.0000 0.77090  0.45421  0.30011  Biso   1.000  C 
  C61      1.0000 0.29014  0.92667  0.44736  Biso   1.000  C 
  C62      1.0000 0.79011  0.42666  0.44725  Biso   1.000  C 
  C63      1.0000 0.24562  0.85218  0.43952  Biso   1.000  C 
  C64      1.0000 0.73256  0.08790  0.55286  Biso   1.000  C 
  Co1      1.0000 0.03507  0.52139  0.67707  Biso   1.000  Co
  Co2      1.0000 0.53521  0.02139  0.67718  Biso   1.000  Co
  Co3      1.0000 0.96458  0.52132  0.17638  Biso   1.000  Co
  Co4      1.0000 0.46474  0.02131  0.17649  Biso   1.000  Co
  H1       1.0000 0.91859  0.43595  0.73232  Biso   1.000  H 
  H2       1.0000 0.61280  0.80684  0.19238  Biso   1.000  H 
  H3       1.0000 0.58522  0.10658  0.12095  Biso   1.000  H 
  H4       1.0000 0.09947  0.23591  0.17693  Biso   1.000  H 
  H5       1.0000 0.71377  0.45112  0.15899  Biso   1.000  H 
  H6       1.0000 0.21383  0.95113  0.15908  Biso   1.000  H 
  H7       1.0000 0.21321  0.09140  0.19020  Biso   1.000  H 
  H8       1.0000 0.08501  0.60659  0.12094  Biso   1.000  H 
  H9       1.0000 0.89734  0.73675  0.66534  Biso   1.000  H 
  H10      1.0000 0.39685  0.23674  0.66508  Biso   1.000  H 
  H11      1.0000 0.59971  0.73594  0.17696  Biso   1.000  H 
  H12      1.0000 0.29012  0.59082  0.69368  Biso   1.000  H 
  H13      1.0000 0.59774  0.30660  0.17552  Biso   1.000  H 
  H14      1.0000 0.91048  0.80766  0.68082  Biso   1.000  H 
  H15      1.0000 0.40992  0.30765  0.68055  Biso   1.000  H 
  H16      1.0000 0.58593  0.93616  0.23406  Biso   1.000  H 
  H17      1.0000 0.11041  0.73569  0.16247  Biso   1.000  H 
  H18      1.0000 0.41278  0.73539  0.67553  Biso   1.000  H 
  H19      1.0000 0.71315  0.59141  0.19012  Biso   1.000  H 
  H20      1.0000 0.41862  0.10701  0.62116  Biso   1.000  H 
  H21      1.0000 0.61068  0.23567  0.16233  Biso   1.000  H 
  H22      1.0000 0.79028  0.09083  0.69374  Biso   1.000  H 
  H23      1.0000 0.91865  0.60702  0.62114  Biso   1.000  H 
  H24      1.0000 0.29034  0.45201  0.66464  Biso   1.000  H 
  H25      1.0000 0.41862  0.93596  0.73243  Biso   1.000  H 
  H26      1.0000 0.90011  0.30632  0.68862  Biso   1.000  H 
  H27      1.0000 0.08578  0.43616  0.23395  Biso   1.000  H 
  H28      1.0000 0.09754  0.80662  0.17568  Biso   1.000  H 
  H29      1.0000 0.79046  0.95202  0.66473  Biso   1.000  H 
  H30      1.0000 0.11252  0.30681  0.19233  Biso   1.000  H 
  H31      1.0000 0.91314  0.23539  0.67532  Biso   1.000  H 
  H32      1.0000 0.39986  0.80632  0.68882  Biso   1.000  H 
  N1       1.0000 0.41080  0.06046  0.81832  Biso   1.000  N 
  N2       1.0000 0.65596  0.05514  0.50086  Biso   1.000  N 
  N3       1.0000 0.15583  0.55513  0.50076  Biso   1.000  N 
  N4       1.0000 0.59063  0.98254  0.03567  Biso   1.000  N 
  N5       1.0000 0.65623  0.98766  0.85555  Biso   1.000  N 
  N6       1.0000 0.84485  0.55543  0.99837  Biso   1.000  N 
  N7       1.0000 0.91070  0.56046  0.81824  Biso   1.000  N 
  N8       1.0000 0.59023  0.06022  0.31957  Biso   1.000  N 
  N9       1.0000 0.34531  0.98724  0.35262  Biso   1.000  N 
  N10      1.0000 0.84520  0.48724  0.35253  Biso   1.000  N 
  N11      1.0000 0.91082  0.48234  0.53405  Biso   1.000  N 
  N12      1.0000 0.34498  0.05543  0.99848  Biso   1.000  N 
  N13      1.0000 0.41090  0.98235  0.53415  Biso   1.000  N 
  N14      1.0000 0.15614  0.48766  0.85545  Biso   1.000  N 
  N15      1.0000 0.09008  0.56022  0.31948  Biso   1.000  N 
  N16      1.0000 0.09052  0.48254  0.03557  Biso   1.000  N 
