data_image0
_cell_length_a       14.3133
_cell_length_b       33.6968
_cell_length_c       6.51604
_cell_angle_alpha    96.9015
_cell_angle_beta     90.405
_cell_angle_gamma    90.0011

_symmetry_space_group_name_H-M    "P 1"
_symmetry_int_tables_number       1

loop_
  _symmetry_equiv_pos_as_xyz
  'x, y, z'

loop_
  _atom_site_label
  _atom_site_occupancy
  _atom_site_fract_x
  _atom_site_fract_y
  _atom_site_fract_z
  _atom_site_thermal_displace_type
  _atom_site_B_iso_or_equiv
  _atom_site_type_symbol
  C1       1.0000 0.36548  0.11702  0.92495  Biso   1.000  C 
  C2       1.0000 0.22897  0.73059  0.43021  Biso   1.000  C 
  C3       1.0000 0.42870  0.94428  0.57392  Biso   1.000  C 
  C4       1.0000 0.82928  0.65585  0.93063  Biso   1.000  C 
  C5       1.0000 0.30358  0.19043  0.93094  Biso   1.000  C 
  C6       1.0000 0.15208  0.58865  0.56987  Biso   1.000  C 
  C7       1.0000 0.65206  0.08866  0.56993  Biso   1.000  C 
  C8       1.0000 0.70860  0.79213  0.09833  Biso   1.000  C 
  C9       1.0000 0.23180  0.25220  0.09985  Biso   1.000  C 
  C10      1.0000 0.14047  0.61692  0.42828  Biso   1.000  C 
  C11      1.0000 0.64045  0.11692  0.42831  Biso   1.000  C 
  C12      1.0000 0.07707  0.59832  0.27979  Biso   1.000  C 
  C13      1.0000 0.57708  0.09831  0.27977  Biso   1.000  C 
  C14      1.0000 0.73248  0.75230  0.10034  Biso   1.000  C 
  C15      1.0000 0.27757  0.23084  0.92942  Biso   1.000  C 
  C16      1.0000 0.80405  0.69051  0.93126  Biso   1.000  C 
  C17      1.0000 0.29838  0.25099  0.75690  Biso   1.000  C 
  C18      1.0000 0.79885  0.75109  0.75723  Biso   1.000  C 
  C19      1.0000 0.27455  0.29082  0.75487  Biso   1.000  C 
  C20      1.0000 0.77496  0.79091  0.75520  Biso   1.000  C 
  C21      1.0000 0.22877  0.31218  0.92528  Biso   1.000  C 
  C22      1.0000 0.72922  0.81227  0.92567  Biso   1.000  C 
  C23      1.0000 0.20269  0.35257  0.92373  Biso   1.000  C 
  C24      1.0000 0.70300  0.85265  0.92408  Biso   1.000  C 
  C25      1.0000 0.35343  0.95400  0.28422  Biso   1.000  C 
  C26      1.0000 0.85348  0.45399  0.28417  Biso   1.000  C 
  C27      1.0000 0.36532  0.92567  0.42535  Biso   1.000  C 
  C28      1.0000 0.86541  0.42566  0.42521  Biso   1.000  C 
  C29      1.0000 0.30358  0.85225  0.41981  Biso   1.000  C 
  C30      1.0000 0.20798  0.29202  0.09780  Biso   1.000  C 
  C31      1.0000 0.32902  0.15580  0.93031  Biso   1.000  C 
  C32      1.0000 0.72892  0.23059  0.43011  Biso   1.000  C 
  C33      1.0000 0.77812  0.73093  0.92976  Biso   1.000  C 
  C34      1.0000 0.57688  0.94438  0.07611  Biso   1.000  C 
  C35      1.0000 0.80364  0.35224  0.41963  Biso   1.000  C 
  C36      1.0000 0.17715  0.38719  0.92435  Biso   1.000  C 
  C37      1.0000 0.92878  0.44426  0.57380  Biso   1.000  C 
  C38      1.0000 0.67734  0.88724  0.92454  Biso   1.000  C 
  C39      1.0000 0.67723  0.15566  0.43374  Biso   1.000  C 
  C40      1.0000 0.17729  0.65565  0.43370  Biso   1.000  C 
  C41      1.0000 0.65228  0.95434  0.78923  Biso   1.000  C 
  C42      1.0000 0.15225  0.45431  0.78922  Biso   1.000  C 
  C43      1.0000 0.20285  0.69024  0.43333  Biso   1.000  C 
  C44      1.0000 0.73174  0.29012  0.25202  Biso   1.000  C 
  C45      1.0000 0.23176  0.79012  0.25214  Biso   1.000  C 
  C46      1.0000 0.70789  0.25034  0.25574  Biso   1.000  C 
  C47      1.0000 0.20795  0.75034  0.25583  Biso   1.000  C 
  C48      1.0000 0.07683  0.44437  0.07608  Biso   1.000  C 
  C49      1.0000 0.70278  0.19025  0.43328  Biso   1.000  C 
  C50      1.0000 0.77499  0.25230  0.60060  Biso   1.000  C 
  C51      1.0000 0.27501  0.75230  0.60072  Biso   1.000  C 
  C52      1.0000 0.79884  0.29208  0.59687  Biso   1.000  C 
  C53      1.0000 0.29882  0.79209  0.59704  Biso   1.000  C 
  C54      1.0000 0.77775  0.31185  0.42257  Biso   1.000  C 
  C55      1.0000 0.92879  0.59845  0.77835  Biso   1.000  C 
  C56      1.0000 0.42874  0.09844  0.77821  Biso   1.000  C 
  C57      1.0000 0.86558  0.61705  0.92514  Biso   1.000  C 
  C58      1.0000 0.14042  0.42592  0.92969  Biso   1.000  C 
  C59      1.0000 0.27772  0.81186  0.42273  Biso   1.000  C 
  C60      1.0000 0.85358  0.58869  0.06576  Biso   1.000  C 
  C61      1.0000 0.35357  0.08868  0.06566  Biso   1.000  C 
  C62      1.0000 0.32881  0.88689  0.41958  Biso   1.000  C 
  C63      1.0000 0.82891  0.38687  0.41941  Biso   1.000  C 
  C64      1.0000 0.64049  0.92595  0.92973  Biso   1.000  C 
  Co1      1.0000 0.47419  0.02136  0.17656  Biso   1.000  Co
  Co2      1.0000 0.97419  0.52136  0.17654  Biso   1.000  Co
  Co3      1.0000 0.03116  0.52140  0.67781  Biso   1.000  Co
  Co4      1.0000 0.53115  0.02140  0.67775  Biso   1.000  Co
  H1       1.0000 0.67220  0.23389  0.12367  Biso   1.000  H 
  H2       1.0000 0.69357  0.09079  0.71091  Biso   1.000  H 
  H3       1.0000 0.45708  0.93304  0.71065  Biso   1.000  H 
  H4       1.0000 0.17230  0.73387  0.12373  Biso   1.000  H 
  H5       1.0000 0.95718  0.60969  0.64244  Biso   1.000  H 
  H6       1.0000 0.19398  0.45231  0.64991  Biso   1.000  H 
  H7       1.0000 0.81201  0.59078  0.20531  Biso   1.000  H 
  H8       1.0000 0.33449  0.80855  0.72916  Biso   1.000  H 
  H9       1.0000 0.29166  0.73743  0.73606  Biso   1.000  H 
  H10      1.0000 0.83453  0.30854  0.72898  Biso   1.000  H 
  H11      1.0000 0.04840  0.43305  0.21176  Biso   1.000  H 
  H12      1.0000 0.21515  0.80499  0.11682  Biso   1.000  H 
  H13      1.0000 0.69401  0.95234  0.64992  Biso   1.000  H 
  H14      1.0000 0.17250  0.30822  0.22975  Biso   1.000  H 
  H15      1.0000 0.79162  0.23743  0.73594  Biso   1.000  H 
  H16      1.0000 0.45711  0.10967  0.64225  Biso   1.000  H 
  H17      1.0000 0.95717  0.43300  0.71052  Biso   1.000  H 
  H18      1.0000 0.71512  0.30500  0.11671  Biso   1.000  H 
  H19      1.0000 0.67318  0.80832  0.23039  Biso   1.000  H 
  H20      1.0000 0.54886  0.10951  0.14276  Biso   1.000  H 
  H21      1.0000 0.21540  0.23702  0.23377  Biso   1.000  H 
  H22      1.0000 0.31201  0.09077  0.20521  Biso   1.000  H 
  H23      1.0000 0.81186  0.45191  0.14337  Biso   1.000  H 
  H24      1.0000 0.31181  0.95190  0.14341  Biso   1.000  H 
  H25      1.0000 0.54847  0.93306  0.21179  Biso   1.000  H 
  H26      1.0000 0.79126  0.80609  0.62125  Biso   1.000  H 
  H27      1.0000 0.29096  0.30600  0.62098  Biso   1.000  H 
  H28      1.0000 0.83427  0.73491  0.62519  Biso   1.000  H 
  H29      1.0000 0.33382  0.23480  0.62493  Biso   1.000  H 
  H30      1.0000 0.71616  0.73713  0.23434  Biso   1.000  H 
  H31      1.0000 0.19363  0.59078  0.71079  Biso   1.000  H 
  H32      1.0000 0.04883  0.60951  0.14278  Biso   1.000  H 
  N1       1.0000 0.05296  0.56223  0.33128  Biso   1.000  N 
  N2       1.0000 0.40608  0.05611  0.00678  Biso   1.000  N 
  N3       1.0000 0.95257  0.48043  0.52289  Biso   1.000  N 
  N4       1.0000 0.90610  0.48658  0.34463  Biso   1.000  N 
  N5       1.0000 0.40606  0.98658  0.34461  Biso   1.000  N 
  N6       1.0000 0.55299  0.06222  0.33124  Biso   1.000  N 
  N7       1.0000 0.59929  0.05612  0.50976  Biso   1.000  N 
  N8       1.0000 0.09940  0.48677  0.84791  Biso   1.000  N 
  N9       1.0000 0.95244  0.56227  0.82988  Biso   1.000  N 
  N10      1.0000 0.45248  0.06228  0.82986  Biso   1.000  N 
  N11      1.0000 0.90602  0.55611  0.00679  Biso   1.000  N 
  N12      1.0000 0.59937  0.98679  0.84788  Biso   1.000  N 
  N13      1.0000 0.55283  0.98051  0.02442  Biso   1.000  N 
  N14      1.0000 0.09928  0.55612  0.50977  Biso   1.000  N 
  N15      1.0000 0.45253  0.98044  0.52291  Biso   1.000  N 
  N16      1.0000 0.05284  0.48050  0.02445  Biso   1.000  N 
