data_image0
_cell_length_a       10.5452
_cell_length_b       34.6027
_cell_length_c       6.73713
_cell_angle_alpha    92.9219
_cell_angle_beta     90.4431
_cell_angle_gamma    89.9674

_symmetry_space_group_name_H-M    "P 1"
_symmetry_int_tables_number       1

loop_
  _symmetry_equiv_pos_as_xyz
  'x, y, z'

loop_
  _atom_site_label
  _atom_site_occupancy
  _atom_site_fract_x
  _atom_site_fract_y
  _atom_site_fract_z
  _atom_site_thermal_displace_type
  _atom_site_B_iso_or_equiv
  _atom_site_type_symbol
  C1       1.0000 0.32995  0.11564  0.91247  Biso   1.000  C 
  C2       1.0000 0.74302  0.23078  0.42532  Biso   1.000  C 
  C3       1.0000 0.24288  0.73076  0.42540  Biso   1.000  C 
  C4       1.0000 0.40672  0.94621  0.58594  Biso   1.000  C 
  C5       1.0000 0.79367  0.65475  0.91670  Biso   1.000  C 
  C6       1.0000 0.27444  0.18957  0.92051  Biso   1.000  C 
  C7       1.0000 0.19225  0.58836  0.56052  Biso   1.000  C 
  C8       1.0000 0.69902  0.79115  0.09087  Biso   1.000  C 
  C9       1.0000 0.20652  0.25106  0.08759  Biso   1.000  C 
  C10      1.0000 0.17579  0.61606  0.41572  Biso   1.000  C 
  C11      1.0000 0.67557  0.11610  0.41576  Biso   1.000  C 
  C12      1.0000 0.10023  0.59674  0.26795  Biso   1.000  C 
  C13      1.0000 0.59993  0.09678  0.26812  Biso   1.000  C 
  C14      1.0000 0.70765  0.75114  0.08681  Biso   1.000  C 
  C15      1.0000 0.26113  0.23024  0.92362  Biso   1.000  C 
  C16      1.0000 0.69214  0.08841  0.56056  Biso   1.000  C 
  C17      1.0000 0.30619  0.25116  0.76342  Biso   1.000  C 
  C18      1.0000 0.80779  0.75129  0.76298  Biso   1.000  C 
  C19      1.0000 0.29745  0.29117  0.76725  Biso   1.000  C 
  C20      1.0000 0.79920  0.79131  0.76710  Biso   1.000  C 
  C21      1.0000 0.24288  0.31199  0.93125  Biso   1.000  C 
  C22      1.0000 0.74440  0.81211  0.93100  Biso   1.000  C 
  C23      1.0000 0.23001  0.35268  0.93434  Biso   1.000  C 
  C24      1.0000 0.73132  0.85279  0.93424  Biso   1.000  C 
  C25      1.0000 0.31464  0.95467  0.29346  Biso   1.000  C 
  C26      1.0000 0.81449  0.45472  0.29300  Biso   1.000  C 
  C27      1.0000 0.33047  0.92702  0.43862  Biso   1.000  C 
  C28      1.0000 0.83028  0.42706  0.43810  Biso   1.000  C 
  C29      1.0000 0.27491  0.85312  0.43195  Biso   1.000  C 
  C30      1.0000 0.77538  0.68966  0.91952  Biso   1.000  C 
  C31      1.0000 0.29306  0.15468  0.91762  Biso   1.000  C 
  C32      1.0000 0.17622  0.42672  0.94147  Biso   1.000  C 
  C33      1.0000 0.19774  0.29108  0.09142  Biso   1.000  C 
  C34      1.0000 0.60105  0.94604  0.08773  Biso   1.000  C 
  C35      1.0000 0.76238  0.73034  0.92283  Biso   1.000  C 
  C36      1.0000 0.77511  0.35314  0.43144  Biso   1.000  C 
  C37      1.0000 0.21218  0.38760  0.93675  Biso   1.000  C 
  C38      1.0000 0.90647  0.44623  0.58552  Biso   1.000  C 
  C39      1.0000 0.71316  0.88770  0.93700  Biso   1.000  C 
  C40      1.0000 0.71153  0.15522  0.42105  Biso   1.000  C 
  C41      1.0000 0.69286  0.95451  0.79731  Biso   1.000  C 
  C42      1.0000 0.19247  0.45442  0.79701  Biso   1.000  C 
  C43      1.0000 0.22973  0.69009  0.42346  Biso   1.000  C 
  C44      1.0000 0.70619  0.29147  0.26595  Biso   1.000  C 
  C45      1.0000 0.20604  0.79146  0.26621  Biso   1.000  C 
  C46      1.0000 0.69709  0.25147  0.26376  Biso   1.000  C 
  C47      1.0000 0.19701  0.75146  0.26386  Biso   1.000  C 
  C48      1.0000 0.10053  0.44601  0.08739  Biso   1.000  C 
  C49      1.0000 0.21169  0.65518  0.42105  Biso   1.000  C 
  C50      1.0000 0.79881  0.25180  0.58899  Biso   1.000  C 
  C51      1.0000 0.29847  0.75176  0.58926  Biso   1.000  C 
  C52      1.0000 0.80786  0.29179  0.59122  Biso   1.000  C 
  C53      1.0000 0.30742  0.79176  0.59168  Biso   1.000  C 
  C54      1.0000 0.76187  0.31249  0.42970  Biso   1.000  C 
  C55      1.0000 0.90660  0.59661  0.76604  Biso   1.000  C 
  C56      1.0000 0.40632  0.09662  0.76657  Biso   1.000  C 
  C57      1.0000 0.83030  0.61569  0.91180  Biso   1.000  C 
  C58      1.0000 0.67687  0.92680  0.94182  Biso   1.000  C 
  C59      1.0000 0.26157  0.81247  0.43012  Biso   1.000  C 
  C60      1.0000 0.81429  0.58790  0.05585  Biso   1.000  C 
  C61      1.0000 0.31406  0.08781  0.05629  Biso   1.000  C 
  C62      1.0000 0.29355  0.88800  0.43393  Biso   1.000  C 
  C63      1.0000 0.79350  0.38802  0.43333  Biso   1.000  C 
  C64      1.0000 0.72970  0.19012  0.42352  Biso   1.000  C 
  Co1      1.0000 0.97152  0.52133  0.17605  Biso   1.000  Co
  Co2      1.0000 0.47157  0.02130  0.17626  Biso   1.000  Co
  Co3      1.0000 0.53672  0.02144  0.67709  Biso   1.000  Co
  Co4      1.0000 0.03674  0.52140  0.67677  Biso   1.000  Co
  H1       1.0000 0.44156  0.10752  0.62918  Biso   1.000  H 
  H2       1.0000 0.65360  0.23556  0.13703  Biso   1.000  H 
  H3       1.0000 0.74194  0.09117  0.70219  Biso   1.000  H 
  H4       1.0000 0.44187  0.93549  0.72464  Biso   1.000  H 
  H5       1.0000 0.94188  0.60745  0.62856  Biso   1.000  H 
  H6       1.0000 0.24219  0.45169  0.65649  Biso   1.000  H 
  H7       1.0000 0.15365  0.73557  0.13698  Biso   1.000  H 
  H8       1.0000 0.35078  0.80766  0.71856  Biso   1.000  H 
  H9       1.0000 0.85136  0.30770  0.71796  Biso   1.000  H 
  H10      1.0000 0.06525  0.43530  0.22519  Biso   1.000  H 
  H11      1.0000 0.17040  0.80706  0.14074  Biso   1.000  H 
  H12      1.0000 0.74256  0.95180  0.65679  Biso   1.000  H 
  H13      1.0000 0.15513  0.30682  0.21839  Biso   1.000  H 
  H14      1.0000 0.83467  0.23621  0.71436  Biso   1.000  H 
  H15      1.0000 0.33430  0.73617  0.71461  Biso   1.000  H 
  H16      1.0000 0.76429  0.59048  0.19616  Biso   1.000  H 
  H17      1.0000 0.56584  0.93531  0.22555  Biso   1.000  H 
  H18      1.0000 0.83462  0.80709  0.64299  Biso   1.000  H 
  H19      1.0000 0.94157  0.43549  0.72420  Biso   1.000  H 
  H20      1.0000 0.65629  0.80688  0.21780  Biso   1.000  H 
  H21      1.0000 0.56456  0.10747  0.12948  Biso   1.000  H 
  H22      1.0000 0.17141  0.23531  0.21204  Biso   1.000  H 
  H23      1.0000 0.76464  0.45204  0.15138  Biso   1.000  H 
  H24      1.0000 0.26475  0.95196  0.15188  Biso   1.000  H 
  H25      1.0000 0.26405  0.09033  0.19660  Biso   1.000  H 
  H26      1.0000 0.33267  0.30692  0.64290  Biso   1.000  H 
  H27      1.0000 0.85056  0.73557  0.63607  Biso   1.000  H 
  H28      1.0000 0.34876  0.23541  0.63641  Biso   1.000  H 
  H29      1.0000 0.67234  0.73536  0.21103  Biso   1.000  H 
  H30      1.0000 0.24194  0.59112  0.70225  Biso   1.000  H 
  H31      1.0000 0.67045  0.30705  0.14051  Biso   1.000  H 
  H32      1.0000 0.06498  0.60744  0.12926  Biso   1.000  H 
  N1       1.0000 0.57245  0.06092  0.32356  Biso   1.000  N 
  N2       1.0000 0.43519  0.98195  0.52995  Biso   1.000  N 
  N3       1.0000 0.37797  0.05525  0.00117  Biso   1.000  N 
  N4       1.0000 0.93497  0.48198  0.52965  Biso   1.000  N 
  N5       1.0000 0.87824  0.48734  0.34897  Biso   1.000  N 
  N6       1.0000 0.37840  0.98729  0.34928  Biso   1.000  N 
  N7       1.0000 0.07267  0.56089  0.32333  Biso   1.000  N 
  N8       1.0000 0.93501  0.56080  0.82192  Biso   1.000  N 
  N9       1.0000 0.43488  0.06081  0.82220  Biso   1.000  N 
  N10      1.0000 0.87807  0.55531  0.00095  Biso   1.000  N 
  N11      1.0000 0.62955  0.98720  0.85208  Biso   1.000  N 
  N12      1.0000 0.57295  0.98185  0.03152  Biso   1.000  N 
  N13      1.0000 0.12941  0.55560  0.50412  Biso   1.000  N 
  N14      1.0000 0.62930  0.05564  0.50428  Biso   1.000  N 
  N15      1.0000 0.12942  0.48715  0.85180  Biso   1.000  N 
  N16      1.0000 0.07273  0.48184  0.03122  Biso   1.000  N 
