data_image0
_cell_length_a       25.494
_cell_length_b       26.7452
_cell_length_c       6.9483
_cell_angle_alpha    96.4251
_cell_angle_beta     89.9641
_cell_angle_gamma    90.0007

_symmetry_space_group_name_H-M    "P 1"
_symmetry_int_tables_number       1

loop_
  _symmetry_equiv_pos_as_xyz
  'x, y, z'

loop_
  _atom_site_label
  _atom_site_occupancy
  _atom_site_fract_x
  _atom_site_fract_y
  _atom_site_fract_z
  _atom_site_thermal_displace_type
  _atom_site_B_iso_or_equiv
  _atom_site_type_symbol
  C1       1.0000 0.40046  0.12303  0.92622  Biso   1.000  C 
  C2       1.0000 0.79188  0.73322  0.92759  Biso   1.000  C 
  C3       1.0000 0.82917  0.34847  0.42726  Biso   1.000  C 
  C4       1.0000 0.14358  0.38131  0.92776  Biso   1.000  C 
  C5       1.0000 0.93627  0.43632  0.57478  Biso   1.000  C 
  C6       1.0000 0.64410  0.88180  0.92830  Biso   1.000  C 
  C7       1.0000 0.64350  0.16123  0.42612  Biso   1.000  C 
  C8       1.0000 0.59484  0.95020  0.77941  Biso   1.000  C 
  C9       1.0000 0.09457  0.44990  0.77920  Biso   1.000  C 
  C10      1.0000 0.17663  0.69429  0.42668  Biso   1.000  C 
  C11      1.0000 0.75783  0.29799  0.26556  Biso   1.000  C 
  C12      1.0000 0.25795  0.79788  0.26592  Biso   1.000  C 
  C13      1.0000 0.72046  0.26030  0.26550  Biso   1.000  C 
  C14      1.0000 0.22063  0.76015  0.26574  Biso   1.000  C 
  C15      1.0000 0.06961  0.43623  0.07506  Biso   1.000  C 
  C16      1.0000 0.14363  0.66110  0.42620  Biso   1.000  C 
  C17      1.0000 0.74778  0.24497  0.58840  Biso   1.000  C 
  C18      1.0000 0.24792  0.74482  0.58866  Biso   1.000  C 
  C19      1.0000 0.78513  0.28266  0.58847  Biso   1.000  C 
  C20      1.0000 0.28524  0.78255  0.58885  Biso   1.000  C 
  C21      1.0000 0.79104  0.31005  0.42707  Biso   1.000  C 
  C22      1.0000 0.93674  0.60645  0.77884  Biso   1.000  C 
  C23      1.0000 0.43652  0.10628  0.77870  Biso   1.000  C 
  C24      1.0000 0.90075  0.62332  0.92644  Biso   1.000  C 
  C25      1.0000 0.29114  0.80997  0.42752  Biso   1.000  C 
  C26      1.0000 0.91174  0.59276  0.07463  Biso   1.000  C 
  C27      1.0000 0.41157  0.09254  0.07452  Biso   1.000  C 
  C28      1.0000 0.36222  0.88161  0.42804  Biso   1.000  C 
  C29      1.0000 0.86216  0.38166  0.42756  Biso   1.000  C 
  C30      1.0000 0.67646  0.19445  0.42657  Biso   1.000  C 
  C31      1.0000 0.56992  0.93646  0.07522  Biso   1.000  C 
  C32      1.0000 0.22067  0.28238  0.08876  Biso   1.000  C 
  C33      1.0000 0.60606  0.91979  0.92788  Biso   1.000  C 
  C34      1.0000 0.36250  0.16111  0.92615  Biso   1.000  C 
  C35      1.0000 0.10566  0.41943  0.92760  Biso   1.000  C 
  C36      1.0000 0.71457  0.23290  0.42687  Biso   1.000  C 
  C37      1.0000 0.21474  0.73273  0.42708  Biso   1.000  C 
  C38      1.0000 0.43632  0.93632  0.57507  Biso   1.000  C 
  C39      1.0000 0.86294  0.66154  0.92656  Biso   1.000  C 
  C40      1.0000 0.32945  0.19425  0.92661  Biso   1.000  C 
  C41      1.0000 0.72133  0.78298  0.08963  Biso   1.000  C 
  C42      1.0000 0.25807  0.24473  0.08864  Biso   1.000  C 
  C43      1.0000 0.10570  0.62300  0.42623  Biso   1.000  C 
  C44      1.0000 0.60562  0.12308  0.42617  Biso   1.000  C 
  C45      1.0000 0.06962  0.60632  0.27882  Biso   1.000  C 
  C46      1.0000 0.56956  0.10635  0.27876  Biso   1.000  C 
  C47      1.0000 0.75874  0.74533  0.08941  Biso   1.000  C 
  C48      1.0000 0.29126  0.23263  0.92692  Biso   1.000  C 
  C49      1.0000 0.09461  0.59243  0.57433  Biso   1.000  C 
  C50      1.0000 0.28531  0.25997  0.76542  Biso   1.000  C 
  C51      1.0000 0.78587  0.76053  0.76603  Biso   1.000  C 
  C52      1.0000 0.24791  0.29762  0.76555  Biso   1.000  C 
  C53      1.0000 0.74845  0.79817  0.76625  Biso   1.000  C 
  C54      1.0000 0.21471  0.30971  0.92723  Biso   1.000  C 
  C55      1.0000 0.71531  0.81028  0.92809  Biso   1.000  C 
  C56      1.0000 0.17656  0.34812  0.92747  Biso   1.000  C 
  C57      1.0000 0.67713  0.84865  0.92826  Biso   1.000  C 
  C58      1.0000 0.83001  0.69479  0.92715  Biso   1.000  C 
  C59      1.0000 0.41135  0.95019  0.27957  Biso   1.000  C 
  C60      1.0000 0.91129  0.45029  0.27938  Biso   1.000  C 
  C61      1.0000 0.40020  0.91967  0.42782  Biso   1.000  C 
  C62      1.0000 0.90014  0.41972  0.42747  Biso   1.000  C 
  C63      1.0000 0.32923  0.84842  0.42777  Biso   1.000  C 
  C64      1.0000 0.59455  0.09252  0.57431  Biso   1.000  C 
  Co1      1.0000 0.01101  0.52118  0.67657  Biso   1.000  Co
  Co2      1.0000 0.51103  0.02121  0.67660  Biso   1.000  Co
  Co3      1.0000 0.99510  0.52129  0.17673  Biso   1.000  Co
  Co4      1.0000 0.49511  0.02127  0.17674  Biso   1.000  Co
  H1       1.0000 0.94165  0.42334  0.71600  Biso   1.000  H 
  H2       1.0000 0.69595  0.79178  0.21514  Biso   1.000  H 
  H3       1.0000 0.56415  0.11931  0.13750  Biso   1.000  H 
  H4       1.0000 0.26209  0.22391  0.21405  Biso   1.000  H 
  H5       1.0000 0.89311  0.45023  0.13811  Biso   1.000  H 
  H6       1.0000 0.39316  0.95009  0.13829  Biso   1.000  H 
  H7       1.0000 0.39344  0.09276  0.21601  Biso   1.000  H 
  H8       1.0000 0.06422  0.61931  0.13761  Biso   1.000  H 
  H9       1.0000 0.81124  0.75172  0.64043  Biso   1.000  H 
  H10      1.0000 0.31073  0.25117  0.63999  Biso   1.000  H 
  H11      1.0000 0.76279  0.72452  0.21479  Biso   1.000  H 
  H12      1.0000 0.11276  0.59257  0.71568  Biso   1.000  H 
  H13      1.0000 0.76181  0.31885  0.14025  Biso   1.000  H 
  H14      1.0000 0.74438  0.81898  0.64081  Biso   1.000  H 
  H15      1.0000 0.24390  0.31845  0.64020  Biso   1.000  H 
  H16      1.0000 0.56457  0.92358  0.21668  Biso   1.000  H 
  H17      1.0000 0.19522  0.75136  0.14037  Biso   1.000  H 
  H18      1.0000 0.24396  0.72393  0.71391  Biso   1.000  H 
  H19      1.0000 0.89360  0.59301  0.21613  Biso   1.000  H 
  H20      1.0000 0.44191  0.11919  0.63732  Biso   1.000  H 
  H21      1.0000 0.69502  0.25154  0.14023  Biso   1.000  H 
  H22      1.0000 0.61271  0.09269  0.71566  Biso   1.000  H 
  H23      1.0000 0.94217  0.61937  0.63749  Biso   1.000  H 
  H24      1.0000 0.11273  0.44968  0.63775  Biso   1.000  H 
  H25      1.0000 0.44170  0.92338  0.71637  Biso   1.000  H 
  H26      1.0000 0.81055  0.29144  0.71380  Biso   1.000  H 
  H27      1.0000 0.06422  0.42338  0.21653  Biso   1.000  H 
  H28      1.0000 0.26192  0.81876  0.14065  Biso   1.000  H 
  H29      1.0000 0.61300  0.95005  0.63798  Biso   1.000  H 
  H30      1.0000 0.19526  0.29119  0.21421  Biso   1.000  H 
  H31      1.0000 0.74382  0.22409  0.71368  Biso   1.000  H 
  H32      1.0000 0.31062  0.79136  0.71423  Biso   1.000  H 
  N1       1.0000 0.46630  0.06902  0.83584  Biso   1.000  N 
  N2       1.0000 0.55529  0.06050  0.51838  Biso   1.000  N 
  N3       1.0000 0.05531  0.56045  0.51837  Biso   1.000  N 
  N4       1.0000 0.53998  0.97357  0.01782  Biso   1.000  N 
  N5       1.0000 0.55540  0.98207  0.83509  Biso   1.000  N 
  N6       1.0000 0.95091  0.56061  0.01854  Biso   1.000  N 
  N7       1.0000 0.96638  0.56908  0.83583  Biso   1.000  N 
  N8       1.0000 0.53981  0.06905  0.33586  Biso   1.000  N 
  N9       1.0000 0.45074  0.98209  0.33526  Biso   1.000  N 
  N10      1.0000 0.95068  0.48218  0.33522  Biso   1.000  N 
  N11      1.0000 0.96614  0.47354  0.51770  Biso   1.000  N 
  N12      1.0000 0.45086  0.06053  0.01855  Biso   1.000  N 
  N13      1.0000 0.46619  0.97351  0.51780  Biso   1.000  N 
  N14      1.0000 0.05529  0.48194  0.83503  Biso   1.000  N 
  N15      1.0000 0.03985  0.56904  0.33586  Biso   1.000  N 
  N16      1.0000 0.03985  0.47349  0.01780  Biso   1.000  N 
