data_image0
_cell_length_a       9.39977
_cell_length_b       19.4211
_cell_length_c       6.73354
_cell_angle_alpha    90.0015
_cell_angle_beta     42.3945
_cell_angle_gamma    89.9957

_symmetry_space_group_name_H-M    "P 1"
_symmetry_int_tables_number       1

loop_
  _symmetry_equiv_pos_as_xyz
  'x, y, z'

loop_
  _atom_site_label
  _atom_site_occupancy
  _atom_site_fract_x
  _atom_site_fract_y
  _atom_site_fract_z
  _atom_site_thermal_displace_type
  _atom_site_B_iso_or_equiv
  _atom_site_type_symbol
  Al1      1.0000 0.49454  0.99994  0.50431  Biso   1.000  Al
  Al2      1.0000 0.99461  0.49994  0.50414  Biso   1.000  Al
  Al3      1.0000 0.99207  0.49995  0.00719  Biso   1.000  Al
  Al4      1.0000 0.49191  0.99994  0.00746  Biso   1.000  Al
  C1       1.0000 0.25071  0.21428  0.68149  Biso   1.000  C 
  C2       1.0000 0.75274  0.67795  0.50122  Biso   1.000  C 
  C3       1.0000 0.78826  0.60216  0.46739  Biso   1.000  C 
  C4       1.0000 0.24422  0.78695  0.32738  Biso   1.000  C 
  C5       1.0000 0.75242  0.32202  0.50155  Biso   1.000  C 
  C6       1.0000 0.25274  0.82195  0.50127  Biso   1.000  C 
  C7       1.0000 0.74348  0.78640  0.68756  Biso   1.000  C 
  C8       1.0000 0.74388  0.28700  0.32773  Biso   1.000  C 
  C9       1.0000 0.78804  0.39780  0.46761  Biso   1.000  C 
  C10      1.0000 0.28823  0.89773  0.46751  Biso   1.000  C 
  C11      1.0000 0.20276  0.60283  0.53820  Biso   1.000  C 
  C12      1.0000 0.75115  0.71435  0.68100  Biso   1.000  C 
  C13      1.0000 0.73512  0.21594  0.33428  Biso   1.000  C 
  C14      1.0000 0.25115  0.78553  0.68102  Biso   1.000  C 
  C15      1.0000 0.23433  0.67780  0.51280  Biso   1.000  C 
  C16      1.0000 0.73431  0.82209  0.51288  Biso   1.000  C 
  C17      1.0000 0.25230  0.17787  0.50171  Biso   1.000  C 
  C18      1.0000 0.75073  0.28562  0.68144  Biso   1.000  C 
  C19      1.0000 0.70273  0.89706  0.53833  Biso   1.000  C 
  C20      1.0000 0.23403  0.32202  0.51316  Biso   1.000  C 
  C21      1.0000 0.23514  0.28393  0.33424  Biso   1.000  C 
  C22      1.0000 0.73549  0.78401  0.33388  Biso   1.000  C 
  C23      1.0000 0.23551  0.71589  0.33382  Biso   1.000  C 
  C24      1.0000 0.70238  0.10290  0.53872  Biso   1.000  C 
  C25      1.0000 0.24311  0.28633  0.68795  Biso   1.000  C 
  C26      1.0000 0.24351  0.71348  0.68749  Biso   1.000  C 
  C27      1.0000 0.28784  0.10209  0.46788  Biso   1.000  C 
  C28      1.0000 0.20256  0.39700  0.53844  Biso   1.000  C 
  C29      1.0000 0.74421  0.71295  0.32737  Biso   1.000  C 
  C30      1.0000 0.74301  0.21357  0.68807  Biso   1.000  C 
  C31      1.0000 0.73390  0.17787  0.51333  Biso   1.000  C 
  C32      1.0000 0.24376  0.21287  0.32787  Biso   1.000  C 
  H1       1.0000 0.77814  0.00004  0.96379  Biso   1.000  H 
  H2       1.0000 0.24652  0.18356  0.18745  Biso   1.000  H 
  H3       1.0000 0.72845  0.18861  0.20061  Biso   1.000  H 
  H4       1.0000 0.22885  0.68858  0.20011  Biso   1.000  H 
  H5       1.0000 0.21437  0.99999  0.04252  Biso   1.000  H 
  H6       1.0000 0.71449  0.50002  0.04237  Biso   1.000  H 
  H7       1.0000 0.75951  0.68719  0.81339  Biso   1.000  H 
  H8       1.0000 0.27826  0.49991  0.96365  Biso   1.000  H 
  H9       1.0000 0.22905  0.36952  0.84425  Biso   1.000  H 
  H10      1.0000 0.74702  0.68364  0.18689  Biso   1.000  H 
  H11      1.0000 0.75906  0.31279  0.81387  Biso   1.000  H 
  H12      1.0000 0.74673  0.31630  0.18719  Biso   1.000  H 
  H13      1.0000 0.25902  0.18712  0.81394  Biso   1.000  H 
  H14      1.0000 0.72880  0.81134  0.20021  Biso   1.000  H 
  H15      1.0000 0.24706  0.81628  0.18690  Biso   1.000  H 
  H16      1.0000 0.72877  0.13039  0.84458  Biso   1.000  H 
  H17      1.0000 0.25951  0.81269  0.81344  Biso   1.000  H 
  H18      1.0000 0.22941  0.63029  0.84379  Biso   1.000  H 
  H19      1.0000 0.22848  0.31125  0.20055  Biso   1.000  H 
  H20      1.0000 0.72933  0.86959  0.84397  Biso   1.000  H 
  O1       1.0000 0.24506  0.31947  0.86156  Biso   1.000  O 
  O2       1.0000 0.68278  0.07262  0.39277  Biso   1.000  O 
  O3       1.0000 0.36728  0.99992  0.88574  Biso   1.000  O 
  O4       1.0000 0.18888  0.57064  0.72141  Biso   1.000  O 
  O5       1.0000 0.18876  0.42920  0.72156  Biso   1.000  O 
  O6       1.0000 0.18306  0.57257  0.39235  Biso   1.000  O 
  O7       1.0000 0.68846  0.07071  0.72197  Biso   1.000  O 
  O8       1.0000 0.24554  0.68033  0.86100  Biso   1.000  O 
  O9       1.0000 0.80706  0.42771  0.61556  Biso   1.000  O 
  O10      1.0000 0.68882  0.92926  0.72156  Biso   1.000  O 
  O11      1.0000 0.74487  0.18044  0.86178  Biso   1.000  O 
  O12      1.0000 0.30775  0.07193  0.27946  Biso   1.000  O 
  O13      1.0000 0.30814  0.92787  0.27909  Biso   1.000  O 
  O14      1.0000 0.80821  0.57201  0.27892  Biso   1.000  O 
  O15      1.0000 0.86740  0.49997  0.88556  Biso   1.000  O 
  O16      1.0000 0.68304  0.92733  0.39247  Biso   1.000  O 
  O17      1.0000 0.18286  0.42725  0.39259  Biso   1.000  O 
  O18      1.0000 0.80724  0.57225  0.61539  Biso   1.000  O 
  O19      1.0000 0.80806  0.42793  0.27905  Biso   1.000  O 
  O20      1.0000 0.62525  0.99996  0.11941  Biso   1.000  O 
  O21      1.0000 0.30725  0.92764  0.61548  Biso   1.000  O 
  O22      1.0000 0.74544  0.81954  0.86115  Biso   1.000  O 
  O23      1.0000 0.12537  0.49991  0.11922  Biso   1.000  O 
  O24      1.0000 0.30693  0.07218  0.61578  Biso   1.000  O 
