data_image0
_cell_length_a       10.7861
_cell_length_b       19.0465
_cell_length_c       6.75888
_cell_angle_alpha    90.0349
_cell_angle_beta     50.9992
_cell_angle_gamma    90.019

_symmetry_space_group_name_H-M    "P 1"
_symmetry_int_tables_number       1

loop_
  _symmetry_equiv_pos_as_xyz
  'x, y, z'

loop_
  _atom_site_label
  _atom_site_occupancy
  _atom_site_fract_x
  _atom_site_fract_y
  _atom_site_fract_z
  _atom_site_thermal_displace_type
  _atom_site_B_iso_or_equiv
  _atom_site_type_symbol
  Al1      1.0000 0.49874  0.99995  0.49994  Biso   1.000  Al
  Al2      1.0000 0.99875  0.49995  0.49996  Biso   1.000  Al
  Al3      1.0000 0.99568  0.49995  0.00340  Biso   1.000  Al
  Al4      1.0000 0.49565  0.99995  0.00339  Biso   1.000  Al
  C1       1.0000 0.26545  0.21310  0.66436  Biso   1.000  C 
  C2       1.0000 0.78239  0.67759  0.46824  Biso   1.000  C 
  C3       1.0000 0.83403  0.60262  0.41686  Biso   1.000  C 
  C4       1.0000 0.26363  0.78636  0.30614  Biso   1.000  C 
  C5       1.0000 0.78278  0.32224  0.46749  Biso   1.000  C 
  C6       1.0000 0.28272  0.82225  0.46752  Biso   1.000  C 
  C7       1.0000 0.72872  0.78486  0.70318  Biso   1.000  C 
  C8       1.0000 0.76371  0.28634  0.30608  Biso   1.000  C 
  C9       1.0000 0.83423  0.39723  0.41622  Biso   1.000  C 
  C10      1.0000 0.33417  0.89725  0.41624  Biso   1.000  C 
  C11      1.0000 0.16259  0.60393  0.58336  Biso   1.000  C 
  C12      1.0000 0.76540  0.71310  0.66442  Biso   1.000  C 
  C13      1.0000 0.72733  0.21548  0.34386  Biso   1.000  C 
  C14      1.0000 0.26471  0.78700  0.66483  Biso   1.000  C 
  C15      1.0000 0.20921  0.67856  0.54086  Biso   1.000  C 
  C16      1.0000 0.70882  0.82127  0.54116  Biso   1.000  C 
  C17      1.0000 0.28237  0.17759  0.46823  Biso   1.000  C 
  C18      1.0000 0.76471  0.28698  0.66485  Biso   1.000  C 
  C19      1.0000 0.66240  0.89593  0.58325  Biso   1.000  C 
  C20      1.0000 0.20883  0.32128  0.54117  Biso   1.000  C 
  C21      1.0000 0.22571  0.28407  0.34554  Biso   1.000  C 
  C22      1.0000 0.72577  0.78406  0.34547  Biso   1.000  C 
  C23      1.0000 0.22727  0.71550  0.34393  Biso   1.000  C 
  C24      1.0000 0.66259  0.10391  0.58333  Biso   1.000  C 
  C25      1.0000 0.22878  0.28486  0.70313  Biso   1.000  C 
  C26      1.0000 0.22811  0.71524  0.70376  Biso   1.000  C 
  C27      1.0000 0.33403  0.10263  0.41683  Biso   1.000  C 
  C28      1.0000 0.16244  0.39595  0.58324  Biso   1.000  C 
  C29      1.0000 0.76217  0.71321  0.30789  Biso   1.000  C 
  C30      1.0000 0.72809  0.21522  0.70377  Biso   1.000  C 
  C31      1.0000 0.70922  0.17854  0.54083  Biso   1.000  C 
  C32      1.0000 0.26210  0.21322  0.30795  Biso   1.000  C 
  H1       1.0000 0.71269  0.00018  0.03613  Biso   1.000  H 
  H2       1.0000 0.27684  0.18479  0.15471  Biso   1.000  H 
  H3       1.0000 0.71218  0.18749  0.22026  Biso   1.000  H 
  H4       1.0000 0.21210  0.68750  0.22035  Biso   1.000  H 
  H5       1.0000 0.28665  0.00002  0.96173  Biso   1.000  H 
  H6       1.0000 0.78668  0.50005  0.96175  Biso   1.000  H 
  H7       1.0000 0.78251  0.68552  0.78661  Biso   1.000  H 
  H8       1.0000 0.21271  0.50019  0.03615  Biso   1.000  H 
  H9       1.0000 0.18418  0.36675  0.89347  Biso   1.000  H 
  H10      1.0000 0.77698  0.68479  0.15460  Biso   1.000  H 
  H11      1.0000 0.78087  0.31476  0.78794  Biso   1.000  H 
  H12      1.0000 0.77936  0.31456  0.15184  Biso   1.000  H 
  H13      1.0000 0.28261  0.18552  0.78648  Biso   1.000  H 
  H14      1.0000 0.70984  0.81189  0.22260  Biso   1.000  H 
  H15      1.0000 0.27924  0.81458  0.15194  Biso   1.000  H 
  H16      1.0000 0.68262  0.13353  0.89511  Biso   1.000  H 
  H17      1.0000 0.28091  0.81478  0.78787  Biso   1.000  H 
  H18      1.0000 0.18267  0.63355  0.89509  Biso   1.000  H 
  H19      1.0000 0.20975  0.31190  0.22270  Biso   1.000  H 
  H20      1.0000 0.68408  0.86674  0.89353  Biso   1.000  H 
  O1       1.0000 0.21407  0.31700  0.89481  Biso   1.000  O 
  O2       1.0000 0.64176  0.07343  0.43912  Biso   1.000  O 
  O3       1.0000 0.40218  0.99994  0.84720  Biso   1.000  O 
  O4       1.0000 0.14241  0.57287  0.77292  Biso   1.000  O 
  O5       1.0000 0.14281  0.42720  0.77215  Biso   1.000  O 
  O6       1.0000 0.14177  0.57344  0.43914  Biso   1.000  O 
  O7       1.0000 0.64241  0.07286  0.77287  Biso   1.000  O 
  O8       1.0000 0.21226  0.68335  0.89666  Biso   1.000  O 
  O9       1.0000 0.85665  0.42686  0.56054  Biso   1.000  O 
  O10      1.0000 0.64276  0.92719  0.77217  Biso   1.000  O 
  O11      1.0000 0.71220  0.18333  0.89671  Biso   1.000  O 
  O12      1.0000 0.35679  0.07338  0.22609  Biso   1.000  O 
  O13      1.0000 0.35714  0.92637  0.22527  Biso   1.000  O 
  O14      1.0000 0.85680  0.57337  0.22613  Biso   1.000  O 
  O15      1.0000 0.90221  0.49994  0.84721  Biso   1.000  O 
  O16      1.0000 0.64129  0.92624  0.43925  Biso   1.000  O 
  O17      1.0000 0.14134  0.42626  0.43924  Biso   1.000  O 
  O18      1.0000 0.85682  0.57313  0.56083  Biso   1.000  O 
  O19      1.0000 0.85720  0.42636  0.22528  Biso   1.000  O 
  O20      1.0000 0.59715  0.99994  0.15034  Biso   1.000  O 
  O21      1.0000 0.35658  0.92688  0.56057  Biso   1.000  O 
  O22      1.0000 0.71395  0.81700  0.89491  Biso   1.000  O 
  O23      1.0000 0.09718  0.49995  0.15035  Biso   1.000  O 
  O24      1.0000 0.35683  0.07315  0.56079  Biso   1.000  O 
