data_image0
_cell_length_a       14.8202
_cell_length_b       16.7298
_cell_length_c       6.74719
_cell_angle_alpha    90.0036
_cell_angle_beta     62.5747
_cell_angle_gamma    90.0036

_symmetry_space_group_name_H-M    "P 1"
_symmetry_int_tables_number       1

loop_
  _symmetry_equiv_pos_as_xyz
  'x, y, z'

loop_
  _atom_site_label
  _atom_site_occupancy
  _atom_site_fract_x
  _atom_site_fract_y
  _atom_site_fract_z
  _atom_site_thermal_displace_type
  _atom_site_B_iso_or_equiv
  _atom_site_type_symbol
  Al1      1.0000 0.50010  0.99988  0.49836  Biso   1.000  Al
  Al2      1.0000 0.00011  0.49989  0.49832  Biso   1.000  Al
  Al3      1.0000 0.99703  0.49991  0.00165  Biso   1.000  Al
  Al4      1.0000 0.49704  0.99991  0.00168  Biso   1.000  Al
  C1       1.0000 0.18721  0.31790  0.56254  Biso   1.000  C 
  C2       1.0000 0.22659  0.28657  0.34511  Biso   1.000  C 
  C3       1.0000 0.72658  0.78657  0.34512  Biso   1.000  C 
  C4       1.0000 0.22640  0.71333  0.34530  Biso   1.000  C 
  C5       1.0000 0.62049  0.11091  0.62455  Biso   1.000  C 
  C6       1.0000 0.21208  0.27964  0.71929  Biso   1.000  C 
  C7       1.0000 0.38033  0.11024  0.37109  Biso   1.000  C 
  C8       1.0000 0.77494  0.28785  0.65463  Biso   1.000  C 
  C9       1.0000 0.12054  0.38891  0.62444  Biso   1.000  C 
  C10      1.0000 0.78866  0.71974  0.28213  Biso   1.000  C 
  C11      1.0000 0.71187  0.22031  0.71948  Biso   1.000  C 
  C12      1.0000 0.68705  0.18200  0.56272  Biso   1.000  C 
  C13      1.0000 0.28867  0.21974  0.28213  Biso   1.000  C 
  C14      1.0000 0.21188  0.72031  0.71947  Biso   1.000  C 
  C15      1.0000 0.31309  0.18223  0.43799  Biso   1.000  C 
  C16      1.0000 0.62054  0.88891  0.62446  Biso   1.000  C 
  C17      1.0000 0.18706  0.68200  0.56271  Biso   1.000  C 
  C18      1.0000 0.27516  0.21211  0.65447  Biso   1.000  C 
  C19      1.0000 0.81311  0.68225  0.43795  Biso   1.000  C 
  C20      1.0000 0.88034  0.61024  0.37105  Biso   1.000  C 
  C21      1.0000 0.68722  0.81791  0.56253  Biso   1.000  C 
  C22      1.0000 0.81290  0.31769  0.43812  Biso   1.000  C 
  C23      1.0000 0.31291  0.81769  0.43813  Biso   1.000  C 
  C24      1.0000 0.71214  0.77967  0.71924  Biso   1.000  C 
  C25      1.0000 0.28846  0.78018  0.28231  Biso   1.000  C 
  C26      1.0000 0.88023  0.38964  0.37109  Biso   1.000  C 
  C27      1.0000 0.38023  0.88964  0.37111  Biso   1.000  C 
  C28      1.0000 0.12050  0.61091  0.62454  Biso   1.000  C 
  C29      1.0000 0.77522  0.71213  0.65441  Biso   1.000  C 
  C30      1.0000 0.72640  0.21332  0.34530  Biso   1.000  C 
  C31      1.0000 0.27496  0.78785  0.65463  Biso   1.000  C 
  C32      1.0000 0.78846  0.28017  0.28230  Biso   1.000  C 
  H1       1.0000 0.29403  0.18316  0.77508  Biso   1.000  H 
  H2       1.0000 0.70683  0.81536  0.22593  Biso   1.000  H 
  H3       1.0000 0.31895  0.80403  0.11376  Biso   1.000  H 
  H4       1.0000 0.63433  0.14612  0.94379  Biso   1.000  H 
  H5       1.0000 0.20687  0.31537  0.22589  Biso   1.000  H 
  H6       1.0000 0.13434  0.64611  0.94378  Biso   1.000  H 
  H7       1.0000 0.63460  0.85389  0.94353  Biso   1.000  H 
  H8       1.0000 0.81895  0.30402  0.11375  Biso   1.000  H 
  H9       1.0000 0.29382  0.81681  0.77523  Biso   1.000  H 
  H10      1.0000 0.79380  0.31682  0.77525  Biso   1.000  H 
  H11      1.0000 0.20668  0.68451  0.22610  Biso   1.000  H 
  H12      1.0000 0.13453  0.35385  0.94359  Biso   1.000  H 
  H13      1.0000 0.13549  0.50000  0.11253  Biso   1.000  H 
  H14      1.0000 0.79412  0.68320  0.77499  Biso   1.000  H 
  H15      1.0000 0.86483  0.49991  0.88248  Biso   1.000  H 
  H16      1.0000 0.36482  0.99991  0.88253  Biso   1.000  H 
  H17      1.0000 0.70668  0.18450  0.22610  Biso   1.000  H 
  H18      1.0000 0.31917  0.19586  0.11359  Biso   1.000  H 
  H19      1.0000 0.63548  0.00002  0.11258  Biso   1.000  H 
  H20      1.0000 0.81914  0.69585  0.11360  Biso   1.000  H 
  O1       1.0000 0.90617  0.58190  0.17653  Biso   1.000  O 
  O2       1.0000 0.93843  0.49991  0.81026  Biso   1.000  O 
  O3       1.0000 0.59523  0.91840  0.48390  Biso   1.000  O 
  O4       1.0000 0.09526  0.41841  0.48385  Biso   1.000  O 
  O5       1.0000 0.40686  0.91792  0.51176  Biso   1.000  O 
  O6       1.0000 0.90622  0.41788  0.17640  Biso   1.000  O 
  O7       1.0000 0.56187  0.99990  0.18467  Biso   1.000  O 
  O8       1.0000 0.40623  0.91788  0.17641  Biso   1.000  O 
  O9       1.0000 0.67669  0.80555  0.93159  Biso   1.000  O 
  O10      1.0000 0.90703  0.58201  0.51165  Biso   1.000  O 
  O11      1.0000 0.40617  0.08190  0.17656  Biso   1.000  O 
  O12      1.0000 0.17637  0.69449  0.93188  Biso   1.000  O 
  O13      1.0000 0.59179  0.91780  0.82304  Biso   1.000  O 
  O14      1.0000 0.90687  0.41792  0.51173  Biso   1.000  O 
  O15      1.0000 0.59170  0.08209  0.82321  Biso   1.000  O 
  O16      1.0000 0.09535  0.58130  0.48387  Biso   1.000  O 
  O17      1.0000 0.09178  0.41780  0.82302  Biso   1.000  O 
  O18      1.0000 0.09170  0.58209  0.82320  Biso   1.000  O 
  O19      1.0000 0.43842  0.99991  0.81030  Biso   1.000  O 
  O20      1.0000 0.59535  0.08129  0.48388  Biso   1.000  O 
  O21      1.0000 0.17659  0.30550  0.93168  Biso   1.000  O 
  O22      1.0000 0.06187  0.49990  0.18464  Biso   1.000  O 
  O23      1.0000 0.67635  0.19449  0.93189  Biso   1.000  O 
  O24      1.0000 0.40701  0.08200  0.51169  Biso   1.000  O 
