data_image0
_cell_length_a       9.42535
_cell_length_b       19.4278
_cell_length_c       6.69552
_cell_angle_alpha    90.0708
_cell_angle_beta     39.2713
_cell_angle_gamma    90.0094

_symmetry_space_group_name_H-M    "P 1"
_symmetry_int_tables_number       1

loop_
  _symmetry_equiv_pos_as_xyz
  'x, y, z'

loop_
  _atom_site_label
  _atom_site_occupancy
  _atom_site_fract_x
  _atom_site_fract_y
  _atom_site_fract_z
  _atom_site_thermal_displace_type
  _atom_site_B_iso_or_equiv
  _atom_site_type_symbol
  Al1      1.0000 0.49188  0.99989  0.50741  Biso   1.000  Al
  Al2      1.0000 0.99200  0.49991  0.50728  Biso   1.000  Al
  Al3      1.0000 0.98870  0.49997  0.01100  Biso   1.000  Al
  Al4      1.0000 0.48864  0.99994  0.01106  Biso   1.000  Al
  C1       1.0000 0.25185  0.21679  0.68499  Biso   1.000  C 
  C2       1.0000 0.74811  0.67845  0.51402  Biso   1.000  C 
  C3       1.0000 0.77602  0.60250  0.49188  Biso   1.000  C 
  C4       1.0000 0.24042  0.78837  0.33506  Biso   1.000  C 
  C5       1.0000 0.74778  0.32151  0.51335  Biso   1.000  C 
  C6       1.0000 0.24847  0.82142  0.51298  Biso   1.000  C 
  C7       1.0000 0.74974  0.78884  0.67895  Biso   1.000  C 
  C8       1.0000 0.73944  0.28845  0.33575  Biso   1.000  C 
  C9       1.0000 0.77627  0.39743  0.49049  Biso   1.000  C 
  C10      1.0000 0.27657  0.89737  0.49039  Biso   1.000  C 
  C11      1.0000 0.21223  0.60269  0.51817  Biso   1.000  C 
  C12      1.0000 0.75252  0.71686  0.68454  Biso   1.000  C 
  C13      1.0000 0.73630  0.21749  0.32965  Biso   1.000  C 
  C14      1.0000 0.25265  0.78327  0.68394  Biso   1.000  C 
  C15      1.0000 0.24105  0.67755  0.49998  Biso   1.000  C 
  C16      1.0000 0.74118  0.82230  0.49970  Biso   1.000  C 
  C17      1.0000 0.24736  0.17838  0.51456  Biso   1.000  C 
  C18      1.0000 0.75205  0.28336  0.68422  Biso   1.000  C 
  C19      1.0000 0.71269  0.89716  0.51710  Biso   1.000  C 
  C20      1.0000 0.24052  0.32223  0.50019  Biso   1.000  C 
  C21      1.0000 0.23637  0.28212  0.32970  Biso   1.000  C 
  C22      1.0000 0.73721  0.78218  0.32902  Biso   1.000  C 
  C23      1.0000 0.23729  0.71742  0.32889  Biso   1.000  C 
  C24      1.0000 0.71173  0.10276  0.51858  Biso   1.000  C 
  C25      1.0000 0.24901  0.28877  0.67953  Biso   1.000  C 
  C26      1.0000 0.24963  0.71128  0.67903  Biso   1.000  C 
  C27      1.0000 0.27556  0.10243  0.49230  Biso   1.000  C 
  C28      1.0000 0.21237  0.39711  0.51734  Biso   1.000  C 
  C29      1.0000 0.74010  0.71124  0.33588  Biso   1.000  C 
  C30      1.0000 0.74887  0.21137  0.67955  Biso   1.000  C 
  C31      1.0000 0.74026  0.17762  0.50054  Biso   1.000  C 
  C32      1.0000 0.23916  0.21117  0.33663  Biso   1.000  C 
  H1       1.0000 0.79336  0.00018  0.93100  Biso   1.000  H 
  H2       1.0000 0.23722  0.18004  0.20374  Biso   1.000  H 
  H3       1.0000 0.73023  0.19156  0.19255  Biso   1.000  H 
  H4       1.0000 0.23135  0.69149  0.19165  Biso   1.000  H 
  H5       1.0000 0.19355  0.99975  0.08139  Biso   1.000  H 
  H6       1.0000 0.69363  0.49987  0.08124  Biso   1.000  H 
  H7       1.0000 0.75925  0.69142  0.82159  Biso   1.000  H 
  H8       1.0000 0.29345  0.50002  0.93085  Biso   1.000  H 
  H9       1.0000 0.24065  0.37359  0.82320  Biso   1.000  H 
  H10      1.0000 0.73833  0.68009  0.20283  Biso   1.000  H 
  H11      1.0000 0.75913  0.30902  0.82070  Biso   1.000  H 
  H12      1.0000 0.73770  0.31934  0.20241  Biso   1.000  H 
  H13      1.0000 0.25878  0.19135  0.82180  Biso   1.000  H 
  H14      1.0000 0.73127  0.80792  0.19166  Biso   1.000  H 
  H15      1.0000 0.23890  0.81929  0.20153  Biso   1.000  H 
  H16      1.0000 0.73986  0.12676  0.82423  Biso   1.000  H 
  H17      1.0000 0.25942  0.80892  0.82080  Biso   1.000  H 
  H18      1.0000 0.24062  0.62665  0.82365  Biso   1.000  H 
  H19      1.0000 0.23039  0.30787  0.19240  Biso   1.000  H 
  H20      1.0000 0.74141  0.87368  0.82253  Biso   1.000  H 
  O1       1.0000 0.25298  0.32379  0.84858  Biso   1.000  O 
  O2       1.0000 0.69149  0.07320  0.37245  Biso   1.000  O 
  O3       1.0000 0.35603  0.99991  0.90477  Biso   1.000  O 
  O4       1.0000 0.20029  0.56933  0.69924  Biso   1.000  O 
  O5       1.0000 0.20129  0.43075  0.69731  Biso   1.000  O 
  O6       1.0000 0.19169  0.57319  0.37231  Biso   1.000  O 
  O7       1.0000 0.69975  0.06943  0.69974  Biso   1.000  O 
  O8       1.0000 0.25351  0.67647  0.84829  Biso   1.000  O 
  O9       1.0000 0.79415  0.42684  0.64043  Biso   1.000  O 
  O10      1.0000 0.70163  0.93084  0.69698  Biso   1.000  O 
  O11      1.0000 0.75278  0.17659  0.84882  Biso   1.000  O 
  O12      1.0000 0.29102  0.07093  0.30796  Biso   1.000  O 
  O13      1.0000 0.29295  0.92854  0.30488  Biso   1.000  O 
  O14      1.0000 0.79153  0.57105  0.30744  Biso   1.000  O 
  O15      1.0000 0.85612  0.49996  0.90466  Biso   1.000  O 
  O16      1.0000 0.69148  0.92639  0.37182  Biso   1.000  O 
  O17      1.0000 0.19151  0.42640  0.37173  Biso   1.000  O 
  O18      1.0000 0.79425  0.57325  0.64143  Biso   1.000  O 
  O19      1.0000 0.79258  0.42866  0.30515  Biso   1.000  O 
  O20      1.0000 0.63086  0.99994  0.10631  Biso   1.000  O 
  O21      1.0000 0.29408  0.92684  0.64065  Biso   1.000  O 
  O22      1.0000 0.75377  0.82389  0.84791  Biso   1.000  O 
  O23      1.0000 0.13095  0.49992  0.10620  Biso   1.000  O 
  O24      1.0000 0.29409  0.07325  0.64156  Biso   1.000  O 
