data_image0
_cell_length_a       9.55037
_cell_length_b       19.4071
_cell_length_c       6.74119
_cell_angle_alpha    90.1601
_cell_angle_beta     43.3269
_cell_angle_gamma    90.0478

_symmetry_space_group_name_H-M    "P 1"
_symmetry_int_tables_number       1

loop_
  _symmetry_equiv_pos_as_xyz
  'x, y, z'

loop_
  _atom_site_label
  _atom_site_occupancy
  _atom_site_fract_x
  _atom_site_fract_y
  _atom_site_fract_z
  _atom_site_thermal_displace_type
  _atom_site_B_iso_or_equiv
  _atom_site_type_symbol
  Al1      1.0000 0.49467  0.99987  0.50406  Biso   1.000  Al
  Al2      1.0000 0.99445  0.49988  0.50452  Biso   1.000  Al
  Al3      1.0000 0.99248  0.49988  0.00701  Biso   1.000  Al
  Al4      1.0000 0.49260  0.99988  0.00662  Biso   1.000  Al
  C1       1.0000 0.25471  0.21449  0.67732  Biso   1.000  C 
  C2       1.0000 0.75567  0.67768  0.49879  Biso   1.000  C 
  C3       1.0000 0.79322  0.60194  0.46327  Biso   1.000  C 
  C4       1.0000 0.24516  0.78677  0.32620  Biso   1.000  C 
  C5       1.0000 0.75678  0.32202  0.49653  Biso   1.000  C 
  C6       1.0000 0.25672  0.82205  0.49652  Biso   1.000  C 
  C7       1.0000 0.74341  0.78657  0.68726  Biso   1.000  C 
  C8       1.0000 0.74529  0.28677  0.32608  Biso   1.000  C 
  C9       1.0000 0.79475  0.39771  0.45975  Biso   1.000  C 
  C10      1.0000 0.29480  0.89773  0.45952  Biso   1.000  C 
  C11      1.0000 0.19611  0.60298  0.54608  Biso   1.000  C 
  C12      1.0000 0.75445  0.71450  0.67770  Biso   1.000  C 
  C13      1.0000 0.73259  0.21572  0.33720  Biso   1.000  C 
  C14      1.0000 0.25428  0.78592  0.67724  Biso   1.000  C 
  C15      1.0000 0.23004  0.67790  0.51772  Biso   1.000  C 
  C16      1.0000 0.73061  0.82188  0.51624  Biso   1.000  C 
  C17      1.0000 0.25594  0.17770  0.49836  Biso   1.000  C 
  C18      1.0000 0.75438  0.28586  0.67715  Biso   1.000  C 
  C19      1.0000 0.69711  0.89685  0.54330  Biso   1.000  C 
  C20      1.0000 0.23073  0.32191  0.51619  Biso   1.000  C 
  C21      1.0000 0.23193  0.28345  0.33761  Biso   1.000  C 
  C22      1.0000 0.73180  0.78339  0.33772  Biso   1.000  C 
  C23      1.0000 0.23237  0.71572  0.33751  Biso   1.000  C 
  C24      1.0000 0.69635  0.10295  0.54561  Biso   1.000  C 
  C25      1.0000 0.24361  0.28656  0.68706  Biso   1.000  C 
  C26      1.0000 0.24239  0.71387  0.68870  Biso   1.000  C 
  C27      1.0000 0.29348  0.10196  0.46275  Biso   1.000  C 
  C28      1.0000 0.19707  0.39687  0.54354  Biso   1.000  C 
  C29      1.0000 0.74376  0.71231  0.32835  Biso   1.000  C 
  C30      1.0000 0.74258  0.21381  0.68840  Biso   1.000  C 
  C31      1.0000 0.73026  0.17787  0.51734  Biso   1.000  C 
  C32      1.0000 0.24398  0.21237  0.32803  Biso   1.000  C 
  H1       1.0000 0.76925  0.00060  0.97328  Biso   1.000  H 
  H2       1.0000 0.24661  0.18281  0.18804  Biso   1.000  H 
  H3       1.0000 0.72364  0.18825  0.20614  Biso   1.000  H 
  H4       1.0000 0.22337  0.68823  0.20654  Biso   1.000  H 
  H5       1.0000 0.22412  0.00050  0.03226  Biso   1.000  H 
  H6       1.0000 0.72396  0.50046  0.03280  Biso   1.000  H 
  H7       1.0000 0.76599  0.68770  0.80685  Biso   1.000  H 
  H8       1.0000 0.26906  0.50064  0.97384  Biso   1.000  H 
  H9       1.0000 0.22761  0.36993  0.84534  Biso   1.000  H 
  H10      1.0000 0.74641  0.68272  0.18841  Biso   1.000  H 
  H11      1.0000 0.76551  0.31317  0.80635  Biso   1.000  H 
  H12      1.0000 0.74869  0.31584  0.18493  Biso   1.000  H 
  H13      1.0000 0.26628  0.18767  0.80639  Biso   1.000  H 
  H14      1.0000 0.72274  0.81040  0.20641  Biso   1.000  H 
  H15      1.0000 0.24859  0.81581  0.18495  Biso   1.000  H 
  H16      1.0000 0.72465  0.13095  0.84922  Biso   1.000  H 
  H17      1.0000 0.26546  0.81325  0.80634  Biso   1.000  H 
  H18      1.0000 0.22444  0.63104  0.84962  Biso   1.000  H 
  H19      1.0000 0.22281  0.31048  0.20639  Biso   1.000  H 
  H20      1.0000 0.72752  0.86996  0.84532  Biso   1.000  H 
  O1       1.0000 0.24629  0.32000  0.85966  Biso   1.000  O 
  O2       1.0000 0.67684  0.07247  0.39981  Biso   1.000  O 
  O3       1.0000 0.37198  0.99990  0.88079  Biso   1.000  O 
  O4       1.0000 0.18097  0.57121  0.73065  Biso   1.000  O 
  O5       1.0000 0.18375  0.42933  0.72583  Biso   1.000  O 
  O6       1.0000 0.17653  0.57249  0.40037  Biso   1.000  O 
  O7       1.0000 0.68115  0.07117  0.73022  Biso   1.000  O 
  O8       1.0000 0.24393  0.68101  0.86285  Biso   1.000  O 
  O9       1.0000 0.81309  0.42787  0.60814  Biso   1.000  O 
  O10      1.0000 0.68384  0.92934  0.72550  Biso   1.000  O 
  O11      1.0000 0.74415  0.18092  0.86249  Biso   1.000  O 
  O12      1.0000 0.31322  0.07157  0.27484  Biso   1.000  O 
  O13      1.0000 0.31646  0.92737  0.26930  Biso   1.000  O 
  O14      1.0000 0.81304  0.57155  0.27528  Biso   1.000  O 
  O15      1.0000 0.87182  0.49989  0.88121  Biso   1.000  O 
  O16      1.0000 0.67592  0.92672  0.39900  Biso   1.000  O 
  O17      1.0000 0.17579  0.42675  0.39936  Biso   1.000  O 
  O18      1.0000 0.81329  0.57243  0.61020  Biso   1.000  O 
  O19      1.0000 0.81641  0.42736  0.26957  Biso   1.000  O 
  O20      1.0000 0.62143  0.99994  0.12334  Biso   1.000  O 
  O21      1.0000 0.31323  0.92791  0.60778  Biso   1.000  O 
  O22      1.0000 0.74610  0.82003  0.85980  Biso   1.000  O 
  O23      1.0000 0.12124  0.49997  0.12378  Biso   1.000  O 
  O24      1.0000 0.31361  0.07244  0.60961  Biso   1.000  O 
