data_image0
_cell_length_a       10.5159
_cell_length_b       19.1452
_cell_length_c       6.75891
_cell_angle_alpha    90.0441
_cell_angle_beta     49.6713
_cell_angle_gamma    90.0391

_symmetry_space_group_name_H-M    "P 1"
_symmetry_int_tables_number       1

loop_
  _symmetry_equiv_pos_as_xyz
  'x, y, z'

loop_
  _atom_site_label
  _atom_site_occupancy
  _atom_site_fract_x
  _atom_site_fract_y
  _atom_site_fract_z
  _atom_site_thermal_displace_type
  _atom_site_B_iso_or_equiv
  _atom_site_type_symbol
  Al1      1.0000 0.49779  0.99989  0.50109  Biso   1.000  Al
  Al2      1.0000 0.99788  0.49990  0.50089  Biso   1.000  Al
  Al3      1.0000 0.99542  0.49989  0.00378  Biso   1.000  Al
  Al4      1.0000 0.49541  0.99987  0.00392  Biso   1.000  Al
  C1       1.0000 0.26686  0.21351  0.66303  Biso   1.000  C 
  C2       1.0000 0.77830  0.67748  0.47269  Biso   1.000  C 
  C3       1.0000 0.82776  0.60236  0.42354  Biso   1.000  C 
  C4       1.0000 0.25690  0.78683  0.31309  Biso   1.000  C 
  C5       1.0000 0.77832  0.32230  0.47210  Biso   1.000  C 
  C6       1.0000 0.27824  0.82233  0.47229  Biso   1.000  C 
  C7       1.0000 0.73368  0.78533  0.69792  Biso   1.000  C 
  C8       1.0000 0.75692  0.28678  0.31300  Biso   1.000  C 
  C9       1.0000 0.82774  0.39745  0.42295  Biso   1.000  C 
  C10      1.0000 0.32763  0.89747  0.42317  Biso   1.000  C 
  C11      1.0000 0.16790  0.60367  0.57759  Biso   1.000  C 
  C12      1.0000 0.76685  0.71347  0.66303  Biso   1.000  C 
  C13      1.0000 0.72424  0.21582  0.34683  Biso   1.000  C 
  C14      1.0000 0.26594  0.78658  0.66361  Biso   1.000  C 
  C15      1.0000 0.21200  0.67842  0.53765  Biso   1.000  C 
  C16      1.0000 0.71168  0.82135  0.53798  Biso   1.000  C 
  C17      1.0000 0.27830  0.17750  0.47272  Biso   1.000  C 
  C18      1.0000 0.76601  0.28656  0.66348  Biso   1.000  C 
  C19      1.0000 0.66749  0.89608  0.57780  Biso   1.000  C 
  C20      1.0000 0.21174  0.32137  0.53783  Biso   1.000  C 
  C21      1.0000 0.22306  0.28368  0.34809  Biso   1.000  C 
  C22      1.0000 0.72303  0.78367  0.34818  Biso   1.000  C 
  C23      1.0000 0.22424  0.71587  0.34683  Biso   1.000  C 
  C24      1.0000 0.66792  0.10363  0.57768  Biso   1.000  C 
  C25      1.0000 0.23372  0.28536  0.69786  Biso   1.000  C 
  C26      1.0000 0.23296  0.71472  0.69857  Biso   1.000  C 
  C27      1.0000 0.32776  0.10238  0.42363  Biso   1.000  C 
  C28      1.0000 0.16760  0.39611  0.57759  Biso   1.000  C 
  C29      1.0000 0.75589  0.71274  0.31450  Biso   1.000  C 
  C30      1.0000 0.73297  0.21471  0.69856  Biso   1.000  C 
  C31      1.0000 0.71201  0.17839  0.53769  Biso   1.000  C 
  C32      1.0000 0.25589  0.21274  0.31450  Biso   1.000  C 
  H1       1.0000 0.72197  0.00043  0.02691  Biso   1.000  H 
  H2       1.0000 0.26628  0.18392  0.16584  Biso   1.000  H 
  H3       1.0000 0.70763  0.18806  0.22471  Biso   1.000  H 
  H4       1.0000 0.20766  0.68812  0.22464  Biso   1.000  H 
  H5       1.0000 0.27646  0.00087  0.97336  Biso   1.000  H 
  H6       1.0000 0.77652  0.50082  0.97313  Biso   1.000  H 
  H7       1.0000 0.78590  0.68624  0.78334  Biso   1.000  H 
  H8       1.0000 0.22202  0.50045  0.02669  Biso   1.000  H 
  H9       1.0000 0.19460  0.36758  0.88247  Biso   1.000  H 
  H10      1.0000 0.76630  0.68393  0.16578  Biso   1.000  H 
  H11      1.0000 0.78424  0.31402  0.78448  Biso   1.000  H 
  H12      1.0000 0.76797  0.31538  0.16350  Biso   1.000  H 
  H13      1.0000 0.28591  0.18629  0.78333  Biso   1.000  H 
  H14      1.0000 0.70568  0.81122  0.22671  Biso   1.000  H 
  H15      1.0000 0.26796  0.81544  0.16359  Biso   1.000  H 
  H16      1.0000 0.69323  0.13268  0.88397  Biso   1.000  H 
  H17      1.0000 0.28414  0.81403  0.78467  Biso   1.000  H 
  H18      1.0000 0.19327  0.63268  0.88387  Biso   1.000  H 
  H19      1.0000 0.20570  0.31122  0.22661  Biso   1.000  H 
  H20      1.0000 0.69455  0.86753  0.88262  Biso   1.000  H 
  O1       1.0000 0.22443  0.31796  0.88380  Biso   1.000  O 
  O2       1.0000 0.64712  0.07317  0.43348  Biso   1.000  O 
  O3       1.0000 0.39725  0.99994  0.85274  Biso   1.000  O 
  O4       1.0000 0.14926  0.57243  0.76558  Biso   1.000  O 
  O5       1.0000 0.14939  0.42755  0.76501  Biso   1.000  O 
  O6       1.0000 0.14708  0.57322  0.43340  Biso   1.000  O 
  O7       1.0000 0.64925  0.07241  0.76573  Biso   1.000  O 
  O8       1.0000 0.22275  0.68237  0.88557  Biso   1.000  O 
  O9       1.0000 0.84946  0.42718  0.56789  Biso   1.000  O 
  O10      1.0000 0.64927  0.92751  0.76525  Biso   1.000  O 
  O11      1.0000 0.72273  0.18237  0.88562  Biso   1.000  O 
  O12      1.0000 0.35032  0.07304  0.23311  Biso   1.000  O 
  O13      1.0000 0.35050  0.92664  0.23230  Biso   1.000  O 
  O14      1.0000 0.85032  0.57304  0.23296  Biso   1.000  O 
  O15      1.0000 0.89731  0.49993  0.85256  Biso   1.000  O 
  O16      1.0000 0.64620  0.92633  0.43406  Biso   1.000  O 
  O17      1.0000 0.14634  0.42636  0.43379  Biso   1.000  O 
  O18      1.0000 0.84976  0.57276  0.56823  Biso   1.000  O 
  O19      1.0000 0.85057  0.42662  0.23210  Biso   1.000  O 
  O20      1.0000 0.60117  0.99988  0.14642  Biso   1.000  O 
  O21      1.0000 0.34932  0.92722  0.56814  Biso   1.000  O 
  O22      1.0000 0.72441  0.81791  0.88390  Biso   1.000  O 
  O23      1.0000 0.10122  0.49990  0.14623  Biso   1.000  O 
  O24      1.0000 0.34978  0.07280  0.56834  Biso   1.000  O 
