data_image0
_cell_length_a       9.41159
_cell_length_b       19.4092
_cell_length_c       6.65972
_cell_angle_alpha    90.1427
_cell_angle_beta     37.4744
_cell_angle_gamma    90.0633

_symmetry_space_group_name_H-M    "P 1"
_symmetry_int_tables_number       1

loop_
  _symmetry_equiv_pos_as_xyz
  'x, y, z'

loop_
  _atom_site_label
  _atom_site_occupancy
  _atom_site_fract_x
  _atom_site_fract_y
  _atom_site_fract_z
  _atom_site_thermal_displace_type
  _atom_site_B_iso_or_equiv
  _atom_site_type_symbol
  Al1      1.0000 0.49168  0.99991  0.50787  Biso   1.000  Al
  Al2      1.0000 0.99139  0.49993  0.50793  Biso   1.000  Al
  Al3      1.0000 0.98667  0.49992  0.01339  Biso   1.000  Al
  Al4      1.0000 0.48699  0.99991  0.01318  Biso   1.000  Al
  C1       1.0000 0.25177  0.21798  0.68811  Biso   1.000  C 
  C2       1.0000 0.74571  0.67895  0.52049  Biso   1.000  C 
  C3       1.0000 0.76879  0.60297  0.50631  Biso   1.000  C 
  C4       1.0000 0.23781  0.78887  0.33958  Biso   1.000  C 
  C5       1.0000 0.74373  0.32142  0.52230  Biso   1.000  C 
  C6       1.0000 0.24614  0.82093  0.51936  Biso   1.000  C 
  C7       1.0000 0.75360  0.79036  0.67330  Biso   1.000  C 
  C8       1.0000 0.73556  0.28932  0.34240  Biso   1.000  C 
  C9       1.0000 0.76738  0.39740  0.50650  Biso   1.000  C 
  C10      1.0000 0.26973  0.89692  0.50382  Biso   1.000  C 
  C11      1.0000 0.22010  0.60241  0.50358  Biso   1.000  C 
  C12      1.0000 0.75387  0.71842  0.68549  Biso   1.000  C 
  C13      1.0000 0.73594  0.21843  0.32870  Biso   1.000  C 
  C14      1.0000 0.25409  0.78191  0.68492  Biso   1.000  C 
  C15      1.0000 0.24527  0.67724  0.49190  Biso   1.000  C 
  C16      1.0000 0.74554  0.82255  0.49107  Biso   1.000  C 
  C17      1.0000 0.24352  0.17847  0.52328  Biso   1.000  C 
  C18      1.0000 0.75168  0.28245  0.68795  Biso   1.000  C 
  C19      1.0000 0.72082  0.89737  0.50160  Biso   1.000  C 
  C20      1.0000 0.24326  0.32208  0.49374  Biso   1.000  C 
  C21      1.0000 0.23583  0.28086  0.32832  Biso   1.000  C 
  C22      1.0000 0.73806  0.78136  0.32564  Biso   1.000  C 
  C23      1.0000 0.23790  0.71797  0.32604  Biso   1.000  C 
  C24      1.0000 0.71837  0.10288  0.50606  Biso   1.000  C 
  C25      1.0000 0.25129  0.28991  0.67605  Biso   1.000  C 
  C26      1.0000 0.25338  0.70994  0.67380  Biso   1.000  C 
  C27      1.0000 0.26702  0.10250  0.50869  Biso   1.000  C 
  C28      1.0000 0.21857  0.39691  0.50415  Biso   1.000  C 
  C29      1.0000 0.73759  0.71050  0.34017  Biso   1.000  C 
  C30      1.0000 0.75105  0.21048  0.67688  Biso   1.000  C 
  C31      1.0000 0.74321  0.17773  0.49472  Biso   1.000  C 
  C32      1.0000 0.23528  0.21000  0.34305  Biso   1.000  C 
  H1       1.0000 0.80571  0.00065  0.90747  Biso   1.000  H 
  H2       1.0000 0.23145  0.17785  0.21360  Biso   1.000  H 
  H3       1.0000 0.73094  0.19312  0.18880  Biso   1.000  H 
  H4       1.0000 0.23276  0.69269  0.18624  Biso   1.000  H 
  H5       1.0000 0.17960  0.99927  0.10580  Biso   1.000  H 
  H6       1.0000 0.67925  0.49976  0.10584  Biso   1.000  H 
  H7       1.0000 0.75921  0.69388  0.82580  Biso   1.000  H 
  H8       1.0000 0.30541  0.50010  0.90748  Biso   1.000  H 
  H9       1.0000 0.24687  0.37573  0.81155  Biso   1.000  H 
  H10      1.0000 0.73381  0.67839  0.21061  Biso   1.000  H 
  H11      1.0000 0.75711  0.30741  0.82794  Biso   1.000  H 
  H12      1.0000 0.73191  0.32103  0.21236  Biso   1.000  H 
  H13      1.0000 0.25729  0.19346  0.82828  Biso   1.000  H 
  H14      1.0000 0.73315  0.80631  0.18541  Biso   1.000  H 
  H15      1.0000 0.23410  0.82059  0.20963  Biso   1.000  H 
  H16      1.0000 0.74554  0.12502  0.81421  Biso   1.000  H 
  H17      1.0000 0.25958  0.80684  0.82487  Biso   1.000  H 
  H18      1.0000 0.24785  0.62446  0.81096  Biso   1.000  H 
  H19      1.0000 0.23089  0.30578  0.18809  Biso   1.000  H 
  H20      1.0000 0.74941  0.87620  0.80851  Biso   1.000  H 
  O1       1.0000 0.25548  0.32606  0.84371  Biso   1.000  O 
  O2       1.0000 0.69883  0.07362  0.35831  Biso   1.000  O 
  O3       1.0000 0.34896  0.99978  0.91672  Biso   1.000  O 
  O4       1.0000 0.20981  0.56837  0.68294  Biso   1.000  O 
  O5       1.0000 0.21015  0.43149  0.68107  Biso   1.000  O 
  O6       1.0000 0.20017  0.57319  0.35624  Biso   1.000  O 
  O7       1.0000 0.70795  0.06891  0.68564  Biso   1.000  O 
  O8       1.0000 0.25747  0.67421  0.84177  Biso   1.000  O 
  O9       1.0000 0.78492  0.42668  0.65738  Biso   1.000  O 
  O10      1.0000 0.71274  0.93202  0.67808  Biso   1.000  O 
  O11      1.0000 0.75495  0.17479  0.84515  Biso   1.000  O 
  O12      1.0000 0.27841  0.07004  0.32852  Biso   1.000  O 
  O13      1.0000 0.28349  0.92864  0.32046  Biso   1.000  O 
  O14      1.0000 0.78025  0.57059  0.32597  Biso   1.000  O 
  O15      1.0000 0.84862  0.50013  0.91687  Biso   1.000  O 
  O16      1.0000 0.69916  0.92603  0.35596  Biso   1.000  O 
  O17      1.0000 0.19728  0.42559  0.35808  Biso   1.000  O 
  O18      1.0000 0.78779  0.57427  0.65583  Biso   1.000  O 
  O19      1.0000 0.78088  0.42917  0.32349  Biso   1.000  O 
  O20      1.0000 0.63632  0.00004  0.09612  Biso   1.000  O 
  O21      1.0000 0.28677  0.92621  0.65526  Biso   1.000  O 
  O22      1.0000 0.75794  0.82652  0.84077  Biso   1.000  O 
  O23      1.0000 0.13602  0.49973  0.09621  Biso   1.000  O 
  O24      1.0000 0.28653  0.07386  0.65768  Biso   1.000  O 
