data_image0
_cell_length_a       16.4545
_cell_length_b       15.6021
_cell_length_c       6.88116
_cell_angle_alpha    89.9943
_cell_angle_beta     64.9999
_cell_angle_gamma    89.9948

_symmetry_space_group_name_H-M    "P 1"
_symmetry_int_tables_number       1

loop_
  _symmetry_equiv_pos_as_xyz
  'x, y, z'

loop_
  _atom_site_label
  _atom_site_occupancy
  _atom_site_fract_x
  _atom_site_fract_y
  _atom_site_fract_z
  _atom_site_thermal_displace_type
  _atom_site_B_iso_or_equiv
  _atom_site_type_symbol
  Al1      1.0000 0.49968  0.99983  0.49965  Biso   1.000  Al
  Al2      1.0000 0.99968  0.49983  0.49963  Biso   1.000  Al
  Al3      1.0000 0.99759  0.49986  0.00225  Biso   1.000  Al
  Al4      1.0000 0.49760  0.99986  0.00226  Biso   1.000  Al
  C1       1.0000 0.18254  0.31476  0.56681  Biso   1.000  C 
  C2       1.0000 0.22029  0.28315  0.35487  Biso   1.000  C 
  C3       1.0000 0.72028  0.78315  0.35489  Biso   1.000  C 
  C4       1.0000 0.22013  0.71681  0.35501  Biso   1.000  C 
  C5       1.0000 0.61266  0.11631  0.63300  Biso   1.000  C 
  C6       1.0000 0.21429  0.27932  0.71287  Biso   1.000  C 
  C7       1.0000 0.38795  0.11537  0.36367  Biso   1.000  C 
  C8       1.0000 0.78086  0.28446  0.64483  Biso   1.000  C 
  C9       1.0000 0.11272  0.38350  0.63298  Biso   1.000  C 
  C10      1.0000 0.78610  0.71998  0.28848  Biso   1.000  C 
  C11      1.0000 0.71407  0.22063  0.71307  Biso   1.000  C 
  C12      1.0000 0.68239  0.18516  0.56694  Biso   1.000  C 
  C13      1.0000 0.28612  0.21999  0.28846  Biso   1.000  C 
  C14      1.0000 0.21407  0.72063  0.71306  Biso   1.000  C 
  C15      1.0000 0.31735  0.18518  0.43373  Biso   1.000  C 
  C16      1.0000 0.61272  0.88351  0.63299  Biso   1.000  C 
  C17      1.0000 0.18239  0.68516  0.56692  Biso   1.000  C 
  C18      1.0000 0.28106  0.21546  0.64458  Biso   1.000  C 
  C19      1.0000 0.81735  0.68518  0.43374  Biso   1.000  C 
  C20      1.0000 0.88793  0.61537  0.36366  Biso   1.000  C 
  C21      1.0000 0.68254  0.81476  0.56682  Biso   1.000  C 
  C22      1.0000 0.81720  0.31473  0.43397  Biso   1.000  C 
  C23      1.0000 0.31719  0.81474  0.43395  Biso   1.000  C 
  C24      1.0000 0.71430  0.77934  0.71286  Biso   1.000  C 
  C25      1.0000 0.28594  0.77998  0.28866  Biso   1.000  C 
  C26      1.0000 0.88790  0.38442  0.36378  Biso   1.000  C 
  C27      1.0000 0.38789  0.88443  0.36378  Biso   1.000  C 
  C28      1.0000 0.11266  0.61631  0.63297  Biso   1.000  C 
  C29      1.0000 0.78107  0.71548  0.64457  Biso   1.000  C 
  C30      1.0000 0.72014  0.21681  0.35503  Biso   1.000  C 
  C31      1.0000 0.28085  0.78447  0.64481  Biso   1.000  C 
  C32      1.0000 0.78595  0.27998  0.28868  Biso   1.000  C 
  H1       1.0000 0.30403  0.18972  0.75984  Biso   1.000  H 
  H2       1.0000 0.69674  0.80891  0.24079  Biso   1.000  H 
  H3       1.0000 0.31400  0.80298  0.12390  Biso   1.000  H 
  H4       1.0000 0.63556  0.15057  0.93715  Biso   1.000  H 
  H5       1.0000 0.19677  0.30892  0.24076  Biso   1.000  H 
  H6       1.0000 0.13558  0.65056  0.93713  Biso   1.000  H 
  H7       1.0000 0.63585  0.84943  0.93697  Biso   1.000  H 
  H8       1.0000 0.81401  0.30297  0.12392  Biso   1.000  H 
  H9       1.0000 0.30380  0.81021  0.76009  Biso   1.000  H 
  H10      1.0000 0.80380  0.31020  0.76012  Biso   1.000  H 
  H11      1.0000 0.19662  0.69108  0.24086  Biso   1.000  H 
  H12      1.0000 0.13581  0.34939  0.93699  Biso   1.000  H 
  H13      1.0000 0.11854  0.50006  0.13162  Biso   1.000  H 
  H14      1.0000 0.80405  0.68974  0.75982  Biso   1.000  H 
  H15      1.0000 0.88187  0.50018  0.86724  Biso   1.000  H 
  H16      1.0000 0.38188  0.00017  0.86726  Biso   1.000  H 
  H17      1.0000 0.69663  0.19107  0.24087  Biso   1.000  H 
  H18      1.0000 0.31418  0.19703  0.12367  Biso   1.000  H 
  H19      1.0000 0.61854  0.00006  0.13163  Biso   1.000  H 
  H20      1.0000 0.81416  0.69702  0.12369  Biso   1.000  H 
  O1       1.0000 0.91503  0.58782  0.17097  Biso   1.000  O 
  O2       1.0000 0.94689  0.49988  0.80295  Biso   1.000  O 
  O3       1.0000 0.58572  0.91235  0.49744  Biso   1.000  O 
  O4       1.0000 0.08572  0.41236  0.49742  Biso   1.000  O 
  O5       1.0000 0.41524  0.91192  0.50095  Biso   1.000  O 
  O6       1.0000 0.91501  0.41196  0.17108  Biso   1.000  O 
  O7       1.0000 0.55352  0.99985  0.19435  Biso   1.000  O 
  O8       1.0000 0.41501  0.91197  0.17108  Biso   1.000  O 
  O9       1.0000 0.68212  0.80477  0.91977  Biso   1.000  O 
  O10      1.0000 0.91520  0.58778  0.50090  Biso   1.000  O 
  O11      1.0000 0.41504  0.08783  0.17098  Biso   1.000  O 
  O12      1.0000 0.18179  0.69524  0.92002  Biso   1.000  O 
  O13      1.0000 0.58375  0.91128  0.82946  Biso   1.000  O 
  O14      1.0000 0.91524  0.41192  0.50095  Biso   1.000  O 
  O15      1.0000 0.58369  0.08855  0.82949  Biso   1.000  O 
  O16      1.0000 0.08577  0.58736  0.49732  Biso   1.000  O 
  O17      1.0000 0.08373  0.41127  0.82947  Biso   1.000  O 
  O18      1.0000 0.08368  0.58854  0.82947  Biso   1.000  O 
  O19      1.0000 0.44690  0.99988  0.80296  Biso   1.000  O 
  O20      1.0000 0.58578  0.08736  0.49734  Biso   1.000  O 
  O21      1.0000 0.18208  0.30474  0.91979  Biso   1.000  O 
  O22      1.0000 0.05352  0.49986  0.19433  Biso   1.000  O 
  O23      1.0000 0.68178  0.19525  0.92005  Biso   1.000  O 
  O24      1.0000 0.41521  0.08777  0.50091  Biso   1.000  O 
