data_image0
_cell_length_a       15.6189
_cell_length_b       16.0643
_cell_length_c       6.76033
_cell_angle_alpha    90.0016
_cell_angle_beta     63.9799
_cell_angle_gamma    90.0007

_symmetry_space_group_name_H-M    "P 1"
_symmetry_int_tables_number       1

loop_
  _symmetry_equiv_pos_as_xyz
  'x, y, z'

loop_
  _atom_site_label
  _atom_site_occupancy
  _atom_site_fract_x
  _atom_site_fract_y
  _atom_site_fract_z
  _atom_site_thermal_displace_type
  _atom_site_B_iso_or_equiv
  _atom_site_type_symbol
  Al1      1.0000 0.50025  0.99989  0.49807  Biso   1.000  Al
  Al2      1.0000 0.00026  0.49989  0.49805  Biso   1.000  Al
  Al3      1.0000 0.99718  0.49995  0.00157  Biso   1.000  Al
  Al4      1.0000 0.49718  0.99995  0.00158  Biso   1.000  Al
  C1       1.0000 0.18459  0.31631  0.56509  Biso   1.000  C 
  C2       1.0000 0.22403  0.28585  0.34798  Biso   1.000  C 
  C3       1.0000 0.72401  0.78583  0.34798  Biso   1.000  C 
  C4       1.0000 0.22389  0.71404  0.34799  Biso   1.000  C 
  C5       1.0000 0.61589  0.11373  0.62895  Biso   1.000  C 
  C6       1.0000 0.21225  0.27884  0.71887  Biso   1.000  C 
  C7       1.0000 0.38495  0.11300  0.36679  Biso   1.000  C 
  C8       1.0000 0.77771  0.28697  0.65177  Biso   1.000  C 
  C9       1.0000 0.11599  0.38616  0.62888  Biso   1.000  C 
  C10      1.0000 0.78864  0.72067  0.28269  Biso   1.000  C 
  C11      1.0000 0.71206  0.22113  0.71893  Biso   1.000  C 
  C12      1.0000 0.68443  0.18362  0.56515  Biso   1.000  C 
  C13      1.0000 0.28867  0.22069  0.28269  Biso   1.000  C 
  C14      1.0000 0.21207  0.72112  0.71891  Biso   1.000  C 
  C15      1.0000 0.31578  0.18391  0.43567  Biso   1.000  C 
  C16      1.0000 0.61599  0.88616  0.62886  Biso   1.000  C 
  C17      1.0000 0.18444  0.68362  0.56513  Biso   1.000  C 
  C18      1.0000 0.27785  0.21297  0.65178  Biso   1.000  C 
  C19      1.0000 0.81579  0.68391  0.43564  Biso   1.000  C 
  C20      1.0000 0.88496  0.61301  0.36676  Biso   1.000  C 
  C21      1.0000 0.68459  0.81631  0.56506  Biso   1.000  C 
  C22      1.0000 0.81570  0.31597  0.43560  Biso   1.000  C 
  C23      1.0000 0.31570  0.81597  0.43559  Biso   1.000  C 
  C24      1.0000 0.71229  0.77887  0.71882  Biso   1.000  C 
  C25      1.0000 0.28855  0.77918  0.28265  Biso   1.000  C 
  C26      1.0000 0.88495  0.38682  0.36662  Biso   1.000  C 
  C27      1.0000 0.38495  0.88681  0.36662  Biso   1.000  C 
  C28      1.0000 0.11590  0.61372  0.62893  Biso   1.000  C 
  C29      1.0000 0.77788  0.71300  0.65173  Biso   1.000  C 
  C30      1.0000 0.72389  0.21404  0.34801  Biso   1.000  C 
  C31      1.0000 0.27771  0.78696  0.65175  Biso   1.000  C 
  C32      1.0000 0.78855  0.27918  0.28266  Biso   1.000  C 
  H1       1.0000 0.29867  0.18462  0.77041  Biso   1.000  H 
  H2       1.0000 0.70244  0.81398  0.23064  Biso   1.000  H 
  H3       1.0000 0.31895  0.80230  0.11437  Biso   1.000  H 
  H4       1.0000 0.63255  0.14901  0.94473  Biso   1.000  H 
  H5       1.0000 0.20249  0.31402  0.23064  Biso   1.000  H 
  H6       1.0000 0.13257  0.64900  0.94470  Biso   1.000  H 
  H7       1.0000 0.63285  0.85108  0.94452  Biso   1.000  H 
  H8       1.0000 0.81895  0.30229  0.11438  Biso   1.000  H 
  H9       1.0000 0.29855  0.81533  0.77034  Biso   1.000  H 
  H10      1.0000 0.79854  0.31533  0.77035  Biso   1.000  H 
  H11      1.0000 0.20233  0.68584  0.23068  Biso   1.000  H 
  H12      1.0000 0.13279  0.35103  0.94459  Biso   1.000  H 
  H13      1.0000 0.12690  0.50002  0.12091  Biso   1.000  H 
  H14      1.0000 0.79873  0.68466  0.77034  Biso   1.000  H 
  H15      1.0000 0.87359  0.49989  0.87371  Biso   1.000  H 
  H16      1.0000 0.37358  0.99989  0.87371  Biso   1.000  H 
  H17      1.0000 0.70233  0.18584  0.23070  Biso   1.000  H 
  H18      1.0000 0.31906  0.19753  0.11445  Biso   1.000  H 
  H19      1.0000 0.62689  0.00004  0.12090  Biso   1.000  H 
  H20      1.0000 0.81902  0.69749  0.11446  Biso   1.000  H 
  O1       1.0000 0.91139  0.58499  0.17181  Biso   1.000  O 
  O2       1.0000 0.94258  0.49990  0.80609  Biso   1.000  O 
  O3       1.0000 0.59009  0.91545  0.48918  Biso   1.000  O 
  O4       1.0000 0.09010  0.41545  0.48919  Biso   1.000  O 
  O5       1.0000 0.41213  0.91476  0.50637  Biso   1.000  O 
  O6       1.0000 0.91144  0.41482  0.17165  Biso   1.000  O 
  O7       1.0000 0.55789  0.99992  0.18846  Biso   1.000  O 
  O8       1.0000 0.41144  0.91482  0.17165  Biso   1.000  O 
  O9       1.0000 0.67730  0.80405  0.93047  Biso   1.000  O 
  O10      1.0000 0.91213  0.58503  0.50649  Biso   1.000  O 
  O11      1.0000 0.41136  0.08498  0.17184  Biso   1.000  O 
  O12      1.0000 0.17698  0.69606  0.93067  Biso   1.000  O 
  O13      1.0000 0.58658  0.91451  0.82787  Biso   1.000  O 
  O14      1.0000 0.91214  0.41477  0.50637  Biso   1.000  O 
  O15      1.0000 0.58647  0.08541  0.82798  Biso   1.000  O 
  O16      1.0000 0.09004  0.58437  0.48923  Biso   1.000  O 
  O17      1.0000 0.08658  0.41451  0.82788  Biso   1.000  O 
  O18      1.0000 0.08649  0.58541  0.82796  Biso   1.000  O 
  O19      1.0000 0.44258  0.99990  0.80609  Biso   1.000  O 
  O20      1.0000 0.59004  0.08437  0.48924  Biso   1.000  O 
  O21      1.0000 0.17722  0.30399  0.93056  Biso   1.000  O 
  O22      1.0000 0.05790  0.49992  0.18846  Biso   1.000  O 
  O23      1.0000 0.67696  0.19607  0.93070  Biso   1.000  O 
  O24      1.0000 0.41212  0.08503  0.50653  Biso   1.000  O 
