data_image0
_cell_length_a       9.7972
_cell_length_b       19.3576
_cell_length_c       6.75431
_cell_angle_alpha    90.0885
_cell_angle_beta     45.4559
_cell_angle_gamma    90.0371

_symmetry_space_group_name_H-M    "P 1"
_symmetry_int_tables_number       1

loop_
  _symmetry_equiv_pos_as_xyz
  'x, y, z'

loop_
  _atom_site_label
  _atom_site_occupancy
  _atom_site_fract_x
  _atom_site_fract_y
  _atom_site_fract_z
  _atom_site_thermal_displace_type
  _atom_site_B_iso_or_equiv
  _atom_site_type_symbol
  Al1      1.0000 0.49546  0.99989  0.50346  Biso   1.000  Al
  Al2      1.0000 0.99536  0.49988  0.50370  Biso   1.000  Al
  Al3      1.0000 0.99351  0.49989  0.00607  Biso   1.000  Al
  Al4      1.0000 0.49341  0.99989  0.00605  Biso   1.000  Al
  C1       1.0000 0.25942  0.21401  0.67110  Biso   1.000  C 
  C2       1.0000 0.76343  0.67763  0.48892  Biso   1.000  C 
  C3       1.0000 0.80528  0.60208  0.44821  Biso   1.000  C 
  C4       1.0000 0.24850  0.78663  0.32214  Biso   1.000  C 
  C5       1.0000 0.76416  0.32209  0.48747  Biso   1.000  C 
  C6       1.0000 0.26396  0.82213  0.48770  Biso   1.000  C 
  C7       1.0000 0.74058  0.78604  0.69036  Biso   1.000  C 
  C8       1.0000 0.74866  0.28660  0.32193  Biso   1.000  C 
  C9       1.0000 0.80597  0.39765  0.44640  Biso   1.000  C 
  C10      1.0000 0.30583  0.89768  0.44650  Biso   1.000  C 
  C11      1.0000 0.18645  0.60307  0.55781  Biso   1.000  C 
  C12      1.0000 0.75929  0.71399  0.67129  Biso   1.000  C 
  C13      1.0000 0.72913  0.21551  0.34147  Biso   1.000  C 
  C14      1.0000 0.25881  0.78619  0.67144  Biso   1.000  C 
  C15      1.0000 0.22374  0.67795  0.52515  Biso   1.000  C 
  C16      1.0000 0.72383  0.82185  0.52448  Biso   1.000  C 
  C17      1.0000 0.26354  0.17767  0.48873  Biso   1.000  C 
  C18      1.0000 0.75903  0.28614  0.67119  Biso   1.000  C 
  C19      1.0000 0.68664  0.89674  0.55658  Biso   1.000  C 
  C20      1.0000 0.22396  0.32188  0.52439  Biso   1.000  C 
  C21      1.0000 0.22817  0.28389  0.34226  Biso   1.000  C 
  C22      1.0000 0.72809  0.78384  0.34234  Biso   1.000  C 
  C23      1.0000 0.22898  0.71555  0.34170  Biso   1.000  C 
  C24      1.0000 0.68657  0.10303  0.55758  Biso   1.000  C 
  C25      1.0000 0.24072  0.28605  0.69023  Biso   1.000  C 
  C26      1.0000 0.23973  0.71416  0.69153  Biso   1.000  C 
  C27      1.0000 0.30537  0.10211  0.44800  Biso   1.000  C 
  C28      1.0000 0.18676  0.39678  0.55657  Biso   1.000  C 
  C29      1.0000 0.74731  0.71274  0.32375  Biso   1.000  C 
  C30      1.0000 0.73991  0.21412  0.69125  Biso   1.000  C 
  C31      1.0000 0.72388  0.17791  0.52492  Biso   1.000  C 
  C32      1.0000 0.24739  0.21279  0.32361  Biso   1.000  C 
  H1       1.0000 0.75312  0.00041  0.99320  Biso   1.000  H 
  H2       1.0000 0.25221  0.18365  0.18094  Biso   1.000  H 
  H3       1.0000 0.71711  0.18782  0.21426  Biso   1.000  H 
  H4       1.0000 0.21695  0.68784  0.21452  Biso   1.000  H 
  H5       1.0000 0.24165  0.00071  0.01148  Biso   1.000  H 
  H6       1.0000 0.74167  0.50068  0.01172  Biso   1.000  H 
  H7       1.0000 0.77416  0.68687  0.79626  Biso   1.000  H 
  H8       1.0000 0.25314  0.50044  0.99346  Biso   1.000  H 
  H9       1.0000 0.21687  0.36886  0.85817  Biso   1.000  H 
  H10      1.0000 0.75216  0.68360  0.18106  Biso   1.000  H 
  H11      1.0000 0.77336  0.31358  0.79649  Biso   1.000  H 
  H12      1.0000 0.75418  0.31539  0.17824  Biso   1.000  H 
  H13      1.0000 0.27431  0.18688  0.79604  Biso   1.000  H 
  H14      1.0000 0.71569  0.81124  0.21527  Biso   1.000  H 
  H15      1.0000 0.25404  0.81541  0.17842  Biso   1.000  H 
  H16      1.0000 0.71474  0.13164  0.86089  Biso   1.000  H 
  H17      1.0000 0.27315  0.81363  0.79672  Biso   1.000  H 
  H18      1.0000 0.21465  0.63170  0.86109  Biso   1.000  H 
  H19      1.0000 0.21574  0.31129  0.21526  Biso   1.000  H 
  H20      1.0000 0.71669  0.86886  0.85829  Biso   1.000  H 
  O1       1.0000 0.24017  0.31901  0.86671  Biso   1.000  O 
  O2       1.0000 0.66659  0.07251  0.41258  Biso   1.000  O 
  O3       1.0000 0.38037  0.99994  0.87098  Biso   1.000  O 
  O4       1.0000 0.17039  0.57155  0.74321  Biso   1.000  O 
  O5       1.0000 0.17151  0.42867  0.74093  Biso   1.000  O 
  O6       1.0000 0.16640  0.57256  0.41288  Biso   1.000  O 
  O7       1.0000 0.67038  0.07152  0.74311  Biso   1.000  O 
  O8       1.0000 0.23804  0.68157  0.86944  Biso   1.000  O 
  O9       1.0000 0.82554  0.42765  0.59346  Biso   1.000  O 
  O10      1.0000 0.67136  0.92864  0.74096  Biso   1.000  O 
  O11      1.0000 0.73822  0.18152  0.86916  Biso   1.000  O 
  O12      1.0000 0.32633  0.07221  0.25907  Biso   1.000  O 
  O13      1.0000 0.32761  0.92721  0.25664  Biso   1.000  O 
  O14      1.0000 0.82635  0.57218  0.25917  Biso   1.000  O 
  O15      1.0000 0.88038  0.49992  0.87110  Biso   1.000  O 
  O16      1.0000 0.66576  0.92690  0.41237  Biso   1.000  O 
  O17      1.0000 0.16585  0.42696  0.41241  Biso   1.000  O 
  O18      1.0000 0.82570  0.57241  0.59455  Biso   1.000  O 
  O19      1.0000 0.82777  0.42720  0.25653  Biso   1.000  O 
  O20      1.0000 0.61439  0.99992  0.13207  Biso   1.000  O 
  O21      1.0000 0.32547  0.92769  0.59346  Biso   1.000  O 
  O22      1.0000 0.74000  0.81901  0.86686  Biso   1.000  O 
  O23      1.0000 0.11441  0.49995  0.13218  Biso   1.000  O 
  O24      1.0000 0.32591  0.07245  0.59421  Biso   1.000  O 
