data_image0
_cell_length_a       9.38505
_cell_length_b       19.4291
_cell_length_c       6.71052
_cell_angle_alpha    90.0279
_cell_angle_beta     40.4485
_cell_angle_gamma    90.0177

_symmetry_space_group_name_H-M    "P 1"
_symmetry_int_tables_number       1

loop_
  _symmetry_equiv_pos_as_xyz
  'x, y, z'

loop_
  _atom_site_label
  _atom_site_occupancy
  _atom_site_fract_x
  _atom_site_fract_y
  _atom_site_fract_z
  _atom_site_thermal_displace_type
  _atom_site_B_iso_or_equiv
  _atom_site_type_symbol
  Al1      1.0000 0.49176  0.99993  0.50759  Biso   1.000  Al
  Al2      1.0000 0.99170  0.49993  0.50770  Biso   1.000  Al
  Al3      1.0000 0.98963  0.49993  0.01014  Biso   1.000  Al
  Al4      1.0000 0.48971  0.99993  0.01003  Biso   1.000  Al
  C1       1.0000 0.25127  0.21581  0.68351  Biso   1.000  C 
  C2       1.0000 0.74998  0.67837  0.50827  Biso   1.000  C 
  C3       1.0000 0.78030  0.60245  0.48213  Biso   1.000  C 
  C4       1.0000 0.24251  0.78763  0.33103  Biso   1.000  C 
  C5       1.0000 0.74936  0.32161  0.50883  Biso   1.000  C 
  C6       1.0000 0.25002  0.82151  0.50808  Biso   1.000  C 
  C7       1.0000 0.74760  0.78791  0.68196  Biso   1.000  C 
  C8       1.0000 0.74181  0.28774  0.33180  Biso   1.000  C 
  C9       1.0000 0.77983  0.39752  0.48233  Biso   1.000  C 
  C10      1.0000 0.28036  0.89744  0.48176  Biso   1.000  C 
  C11      1.0000 0.20886  0.60263  0.52618  Biso   1.000  C 
  C12      1.0000 0.75185  0.71589  0.68287  Biso   1.000  C 
  C13      1.0000 0.73685  0.21675  0.33048  Biso   1.000  C 
  C14      1.0000 0.25183  0.78410  0.68284  Biso   1.000  C 
  C15      1.0000 0.23902  0.67753  0.50458  Biso   1.000  C 
  C16      1.0000 0.73916  0.82234  0.50420  Biso   1.000  C 
  C17      1.0000 0.24946  0.17828  0.50885  Biso   1.000  C 
  C18      1.0000 0.75121  0.28418  0.68353  Biso   1.000  C 
  C19      1.0000 0.70902  0.89724  0.52562  Biso   1.000  C 
  C20      1.0000 0.23861  0.32225  0.50483  Biso   1.000  C 
  C21      1.0000 0.23690  0.28303  0.33036  Biso   1.000  C 
  C22      1.0000 0.73745  0.78312  0.32973  Biso   1.000  C 
  C23      1.0000 0.23745  0.71663  0.32987  Biso   1.000  C 
  C24      1.0000 0.70851  0.10273  0.52649  Biso   1.000  C 
  C25      1.0000 0.24703  0.28782  0.68261  Biso   1.000  C 
  C26      1.0000 0.24748  0.71208  0.68223  Biso   1.000  C 
  C27      1.0000 0.27996  0.10237  0.48245  Biso   1.000  C 
  C28      1.0000 0.20856  0.39715  0.52614  Biso   1.000  C 
  C29      1.0000 0.74238  0.71212  0.33123  Biso   1.000  C 
  C30      1.0000 0.74696  0.21217  0.68275  Biso   1.000  C 
  C31      1.0000 0.73849  0.17763  0.50510  Biso   1.000  C 
  C32      1.0000 0.24186  0.21204  0.33182  Biso   1.000  C 
  H1       1.0000 0.78766  0.00014  0.94516  Biso   1.000  H 
  H2       1.0000 0.24202  0.18171  0.19544  Biso   1.000  H 
  H3       1.0000 0.73091  0.19024  0.19439  Biso   1.000  H 
  H4       1.0000 0.23148  0.69012  0.19382  Biso   1.000  H 
  H5       1.0000 0.20023  0.99993  0.06733  Biso   1.000  H 
  H6       1.0000 0.70013  0.49998  0.06744  Biso   1.000  H 
  H7       1.0000 0.75880  0.68969  0.81841  Biso   1.000  H 
  H8       1.0000 0.28756  0.49997  0.94529  Biso   1.000  H 
  H9       1.0000 0.23642  0.37194  0.83153  Biso   1.000  H 
  H10      1.0000 0.74251  0.68180  0.19489  Biso   1.000  H 
  H11      1.0000 0.75825  0.31047  0.81892  Biso   1.000  H 
  H12      1.0000 0.74204  0.31798  0.19528  Biso   1.000  H 
  H13      1.0000 0.25826  0.18961  0.81902  Biso   1.000  H 
  H14      1.0000 0.73141  0.80955  0.19369  Biso   1.000  H 
  H15      1.0000 0.24278  0.81786  0.19443  Biso   1.000  H 
  H16      1.0000 0.73627  0.12812  0.83183  Biso   1.000  H 
  H17      1.0000 0.25877  0.81040  0.81834  Biso   1.000  H 
  H18      1.0000 0.23657  0.62804  0.83157  Biso   1.000  H 
  H19      1.0000 0.23086  0.30947  0.19431  Biso   1.000  H 
  H20      1.0000 0.73686  0.87204  0.83100  Biso   1.000  H 
  O1       1.0000 0.25029  0.32203  0.85350  Biso   1.000  O 
  O2       1.0000 0.68783  0.07294  0.38112  Biso   1.000  O 
  O3       1.0000 0.35941  0.99991  0.89824  Biso   1.000  O 
  O4       1.0000 0.19627  0.56976  0.70805  Biso   1.000  O 
  O5       1.0000 0.19632  0.43014  0.70758  Biso   1.000  O 
  O6       1.0000 0.18816  0.57284  0.38084  Biso   1.000  O 
  O7       1.0000 0.69608  0.06984  0.70815  Biso   1.000  O 
  O8       1.0000 0.25065  0.67796  0.85328  Biso   1.000  O 
  O9       1.0000 0.79727  0.42722  0.63243  Biso   1.000  O 
  O10      1.0000 0.69670  0.93022  0.70715  Biso   1.000  O 
  O11      1.0000 0.75024  0.17804  0.85367  Biso   1.000  O 
  O12      1.0000 0.29763  0.07147  0.29597  Biso   1.000  O 
  O13      1.0000 0.29820  0.92824  0.29506  Biso   1.000  O 
  O14      1.0000 0.79781  0.57152  0.29583  Biso   1.000  O 
  O15      1.0000 0.85932  0.49997  0.89840  Biso   1.000  O 
  O16      1.0000 0.68804  0.92693  0.38055  Biso   1.000  O 
  O17      1.0000 0.18757  0.42684  0.38106  Biso   1.000  O 
  O18      1.0000 0.79804  0.57289  0.63197  Biso   1.000  O 
  O19      1.0000 0.79781  0.42831  0.29546  Biso   1.000  O 
  O20      1.0000 0.62848  0.99993  0.11227  Biso   1.000  O 
  O21      1.0000 0.29776  0.92712  0.63192  Biso   1.000  O 
  O22      1.0000 0.75082  0.82213  0.85290  Biso   1.000  O 
  O23      1.0000 0.12838  0.49986  0.11239  Biso   1.000  O 
  O24      1.0000 0.29772  0.07279  0.63226  Biso   1.000  O 
