data_image0
_cell_length_a       11.4887
_cell_length_b       18.7577
_cell_length_c       6.74513
_cell_angle_alpha    90.0364
_cell_angle_beta     53.8877
_cell_angle_gamma    90.0167

_symmetry_space_group_name_H-M    "P 1"
_symmetry_int_tables_number       1

loop_
  _symmetry_equiv_pos_as_xyz
  'x, y, z'

loop_
  _atom_site_label
  _atom_site_occupancy
  _atom_site_fract_x
  _atom_site_fract_y
  _atom_site_fract_z
  _atom_site_thermal_displace_type
  _atom_site_B_iso_or_equiv
  _atom_site_type_symbol
  Al1      1.0000 0.49943  0.99989  0.49919  Biso   1.000  Al
  Al2      1.0000 0.99943  0.49989  0.49910  Biso   1.000  Al
  Al3      1.0000 0.99535  0.49992  0.00345  Biso   1.000  Al
  Al4      1.0000 0.49535  0.99994  0.00350  Biso   1.000  Al
  C1       1.0000 0.26021  0.21183  0.66923  Biso   1.000  C 
  C2       1.0000 0.79222  0.67822  0.45815  Biso   1.000  C 
  C3       1.0000 0.84692  0.60345  0.40400  Biso   1.000  C 
  C4       1.0000 0.28119  0.78407  0.28877  Biso   1.000  C 
  C5       1.0000 0.79236  0.32157  0.45766  Biso   1.000  C 
  C6       1.0000 0.29237  0.82158  0.45769  Biso   1.000  C 
  C7       1.0000 0.71635  0.78328  0.71556  Biso   1.000  C 
  C8       1.0000 0.78117  0.28405  0.28877  Biso   1.000  C 
  C9       1.0000 0.84711  0.39634  0.40330  Biso   1.000  C 
  C10      1.0000 0.34709  0.89635  0.40336  Biso   1.000  C 
  C11      1.0000 0.15168  0.60438  0.59429  Biso   1.000  C 
  C12      1.0000 0.76016  0.71181  0.66928  Biso   1.000  C 
  C13      1.0000 0.73771  0.21350  0.33394  Biso   1.000  C 
  C14      1.0000 0.26005  0.78818  0.66914  Biso   1.000  C 
  C15      1.0000 0.20461  0.67848  0.54575  Biso   1.000  C 
  C16      1.0000 0.70460  0.82135  0.54574  Biso   1.000  C 
  C17      1.0000 0.29225  0.17824  0.45814  Biso   1.000  C 
  C18      1.0000 0.76005  0.28819  0.66912  Biso   1.000  C 
  C19      1.0000 0.65166  0.89546  0.59410  Biso   1.000  C 
  C20      1.0000 0.20461  0.32136  0.54569  Biso   1.000  C 
  C21      1.0000 0.23744  0.28613  0.33420  Biso   1.000  C 
  C22      1.0000 0.73747  0.78614  0.33420  Biso   1.000  C 
  C23      1.0000 0.23772  0.71351  0.33392  Biso   1.000  C 
  C24      1.0000 0.65170  0.10438  0.59433  Biso   1.000  C 
  C25      1.0000 0.21639  0.28330  0.71549  Biso   1.000  C 
  C26      1.0000 0.21614  0.71673  0.71567  Biso   1.000  C 
  C27      1.0000 0.34696  0.10346  0.40401  Biso   1.000  C 
  C28      1.0000 0.15167  0.39546  0.59402  Biso   1.000  C 
  C29      1.0000 0.78087  0.71557  0.28930  Biso   1.000  C 
  C30      1.0000 0.71614  0.21673  0.71568  Biso   1.000  C 
  C31      1.0000 0.70462  0.17848  0.54578  Biso   1.000  C 
  C32      1.0000 0.28087  0.21556  0.28931  Biso   1.000  C 
  H1       1.0000 0.69189  0.00021  0.05573  Biso   1.000  H 
  H2       1.0000 0.30754  0.18865  0.12445  Biso   1.000  H 
  H3       1.0000 0.72759  0.18431  0.20557  Biso   1.000  H 
  H4       1.0000 0.22761  0.68434  0.20551  Biso   1.000  H 
  H5       1.0000 0.30723  0.00060  0.93989  Biso   1.000  H 
  H6       1.0000 0.80723  0.50063  0.93981  Biso   1.000  H 
  H7       1.0000 0.76971  0.68292  0.79894  Biso   1.000  H 
  H8       1.0000 0.19189  0.50024  0.05565  Biso   1.000  H 
  H9       1.0000 0.15713  0.36354  0.92130  Biso   1.000  H 
  H10      1.0000 0.80757  0.68867  0.12441  Biso   1.000  H 
  H11      1.0000 0.76945  0.31722  0.79884  Biso   1.000  H 
  H12      1.0000 0.80797  0.31082  0.12369  Biso   1.000  H 
  H13      1.0000 0.26979  0.18295  0.79889  Biso   1.000  H 
  H14      1.0000 0.72722  0.81518  0.20583  Biso   1.000  H 
  H15      1.0000 0.30801  0.81084  0.12371  Biso   1.000  H 
  H16      1.0000 0.65656  0.13668  0.92196  Biso   1.000  H 
  H17      1.0000 0.26945  0.81720  0.79888  Biso   1.000  H 
  H18      1.0000 0.15655  0.63666  0.92189  Biso   1.000  H 
  H19      1.0000 0.22717  0.31517  0.20584  Biso   1.000  H 
  H20      1.0000 0.65710  0.86351  0.92139  Biso   1.000  H 
  O1       1.0000 0.18599  0.31325  0.92299  Biso   1.000  O 
  O2       1.0000 0.63037  0.07392  0.45020  Biso   1.000  O 
  O3       1.0000 0.41154  0.99993  0.83719  Biso   1.000  O 
  O4       1.0000 0.12757  0.57395  0.78811  Biso   1.000  O 
  O5       1.0000 0.12792  0.42610  0.78740  Biso   1.000  O 
  O6       1.0000 0.13032  0.57394  0.45016  Biso   1.000  O 
  O7       1.0000 0.62759  0.07395  0.78817  Biso   1.000  O 
  O8       1.0000 0.18541  0.68697  0.92354  Biso   1.000  O 
  O9       1.0000 0.87060  0.42578  0.54691  Biso   1.000  O 
  O10      1.0000 0.62791  0.92609  0.78748  Biso   1.000  O 
  O11      1.0000 0.68541  0.18698  0.92356  Biso   1.000  O 
  O12      1.0000 0.36967  0.07419  0.21300  Biso   1.000  O 
  O13      1.0000 0.37008  0.92544  0.21203  Biso   1.000  O 
  O14      1.0000 0.86963  0.57418  0.21298  Biso   1.000  O 
  O15      1.0000 0.91154  0.49992  0.83711  Biso   1.000  O 
  O16      1.0000 0.62996  0.92571  0.45025  Biso   1.000  O 
  O17      1.0000 0.12996  0.42571  0.45018  Biso   1.000  O 
  O18      1.0000 0.87072  0.57418  0.54737  Biso   1.000  O 
  O19      1.0000 0.87010  0.42542  0.21195  Biso   1.000  O 
  O20      1.0000 0.58755  0.99993  0.15953  Biso   1.000  O 
  O21      1.0000 0.37059  0.92579  0.54700  Biso   1.000  O 
  O22      1.0000 0.68594  0.81322  0.92307  Biso   1.000  O 
  O23      1.0000 0.08755  0.49993  0.15946  Biso   1.000  O 
  O24      1.0000 0.37075  0.07419  0.54740  Biso   1.000  O 
