data_image0
_cell_length_a       14.2102
_cell_length_b       17.1691
_cell_length_c       6.73467
_cell_angle_alpha    90.0074
_cell_angle_beta     61.4453
_cell_angle_gamma    90.0051

_symmetry_space_group_name_H-M    "P 1"
_symmetry_int_tables_number       1

loop_
  _symmetry_equiv_pos_as_xyz
  'x, y, z'

loop_
  _atom_site_label
  _atom_site_occupancy
  _atom_site_fract_x
  _atom_site_fract_y
  _atom_site_fract_z
  _atom_site_thermal_displace_type
  _atom_site_B_iso_or_equiv
  _atom_site_type_symbol
  Al1      1.0000 0.50039  0.99992  0.49813  Biso   1.000  Al
  Al2      1.0000 0.00040  0.49992  0.49811  Biso   1.000  Al
  Al3      1.0000 0.99727  0.49990  0.00139  Biso   1.000  Al
  Al4      1.0000 0.49727  0.99990  0.00140  Biso   1.000  Al
  C1       1.0000 0.27303  0.21149  0.65686  Biso   1.000  C 
  C2       1.0000 0.81055  0.68100  0.44028  Biso   1.000  C 
  C3       1.0000 0.87645  0.60846  0.37477  Biso   1.000  C 
  C4       1.0000 0.28769  0.78125  0.28249  Biso   1.000  C 
  C5       1.0000 0.81037  0.31890  0.44040  Biso   1.000  C 
  C6       1.0000 0.31038  0.81890  0.44040  Biso   1.000  C 
  C7       1.0000 0.71211  0.78004  0.71970  Biso   1.000  C 
  C8       1.0000 0.78768  0.28125  0.28249  Biso   1.000  C 
  C9       1.0000 0.87639  0.39140  0.37475  Biso   1.000  C 
  C10      1.0000 0.37639  0.89140  0.37476  Biso   1.000  C 
  C11      1.0000 0.12450  0.60942  0.62077  Biso   1.000  C 
  C12      1.0000 0.77307  0.71150  0.65682  Biso   1.000  C 
  C13      1.0000 0.72782  0.21339  0.34351  Biso   1.000  C 
  C14      1.0000 0.27282  0.78848  0.65703  Biso   1.000  C 
  C15      1.0000 0.18905  0.68138  0.56089  Biso   1.000  C 
  C16      1.0000 0.68921  0.81851  0.56069  Biso   1.000  C 
  C17      1.0000 0.31053  0.18099  0.44031  Biso   1.000  C 
  C18      1.0000 0.77281  0.28848  0.65703  Biso   1.000  C 
  C19      1.0000 0.62453  0.89041  0.62061  Biso   1.000  C 
  C20      1.0000 0.18920  0.31851  0.56070  Biso   1.000  C 
  C21      1.0000 0.22795  0.28645  0.34336  Biso   1.000  C 
  C22      1.0000 0.72794  0.78645  0.34337  Biso   1.000  C 
  C23      1.0000 0.22782  0.71339  0.34351  Biso   1.000  C 
  C24      1.0000 0.62449  0.10942  0.62078  Biso   1.000  C 
  C25      1.0000 0.21208  0.28002  0.71974  Biso   1.000  C 
  C26      1.0000 0.21185  0.71995  0.71996  Biso   1.000  C 
  C27      1.0000 0.37644  0.10845  0.37479  Biso   1.000  C 
  C28      1.0000 0.12453  0.39041  0.62061  Biso   1.000  C 
  C29      1.0000 0.78782  0.71860  0.28239  Biso   1.000  C 
  C30      1.0000 0.71184  0.21995  0.71997  Biso   1.000  C 
  C31      1.0000 0.68905  0.18138  0.56090  Biso   1.000  C 
  C32      1.0000 0.28783  0.21860  0.28239  Biso   1.000  C 
  H1       1.0000 0.64319  0.00007  0.10485  Biso   1.000  H 
  H2       1.0000 0.31803  0.19403  0.11396  Biso   1.000  H 
  H3       1.0000 0.70930  0.18420  0.22314  Biso   1.000  H 
  H4       1.0000 0.20930  0.68421  0.22314  Biso   1.000  H 
  H5       1.0000 0.35768  0.00007  0.88916  Biso   1.000  H 
  H6       1.0000 0.85768  0.50007  0.88914  Biso   1.000  H 
  H7       1.0000 0.79086  0.68232  0.77853  Biso   1.000  H 
  H8       1.0000 0.14319  0.50006  0.10482  Biso   1.000  H 
  H9       1.0000 0.13641  0.35566  0.94222  Biso   1.000  H 
  H10      1.0000 0.81800  0.69402  0.11397  Biso   1.000  H 
  H11      1.0000 0.79055  0.31772  0.77876  Biso   1.000  H 
  H12      1.0000 0.81792  0.30578  0.11403  Biso   1.000  H 
  H13      1.0000 0.29081  0.18230  0.77858  Biso   1.000  H 
  H14      1.0000 0.70937  0.81557  0.22302  Biso   1.000  H 
  H15      1.0000 0.31792  0.80579  0.11403  Biso   1.000  H 
  H16      1.0000 0.63616  0.14435  0.94251  Biso   1.000  H 
  H17      1.0000 0.29056  0.81771  0.77875  Biso   1.000  H 
  H18      1.0000 0.13617  0.64434  0.94250  Biso   1.000  H 
  H19      1.0000 0.20940  0.31558  0.22299  Biso   1.000  H 
  H20      1.0000 0.63646  0.85569  0.94218  Biso   1.000  H 
  O1       1.0000 0.17666  0.30663  0.93226  Biso   1.000  O 
  O2       1.0000 0.60003  0.07952  0.47920  Biso   1.000  O 
  O3       1.0000 0.43524  0.99992  0.81335  Biso   1.000  O 
  O4       1.0000 0.09643  0.58018  0.81895  Biso   1.000  O 
  O5       1.0000 0.09652  0.41971  0.81872  Biso   1.000  O 
  O6       1.0000 0.10003  0.57952  0.47918  Biso   1.000  O 
  O7       1.0000 0.59643  0.08018  0.81897  Biso   1.000  O 
  O8       1.0000 0.17638  0.69340  0.93255  Biso   1.000  O 
  O9       1.0000 0.90275  0.41983  0.51601  Biso   1.000  O 
  O10      1.0000 0.59653  0.91971  0.81872  Biso   1.000  O 
  O11      1.0000 0.67636  0.19340  0.93256  Biso   1.000  O 
  O12      1.0000 0.40191  0.07996  0.18046  Biso   1.000  O 
  O13      1.0000 0.40203  0.91976  0.18022  Biso   1.000  O 
  O14      1.0000 0.90192  0.57996  0.18044  Biso   1.000  O 
  O15      1.0000 0.93524  0.49992  0.81334  Biso   1.000  O 
  O16      1.0000 0.59990  0.92020  0.47918  Biso   1.000  O 
  O17      1.0000 0.09990  0.42021  0.47917  Biso   1.000  O 
  O18      1.0000 0.90290  0.58011  0.51598  Biso   1.000  O 
  O19      1.0000 0.90202  0.41976  0.18022  Biso   1.000  O 
  O20      1.0000 0.56562  0.99991  0.18102  Biso   1.000  O 
  O21      1.0000 0.40275  0.91983  0.51601  Biso   1.000  O 
  O22      1.0000 0.67672  0.80666  0.93221  Biso   1.000  O 
  O23      1.0000 0.06562  0.49991  0.18100  Biso   1.000  O 
  O24      1.0000 0.40289  0.08011  0.51600  Biso   1.000  O 
