data_image0
_cell_length_a       11.8532
_cell_length_b       18.5909
_cell_length_c       6.74179
_cell_angle_alpha    90.0229
_cell_angle_beta     55.1186
_cell_angle_gamma    90.011

_symmetry_space_group_name_H-M    "P 1"
_symmetry_int_tables_number       1

loop_
  _symmetry_equiv_pos_as_xyz
  'x, y, z'

loop_
  _atom_site_label
  _atom_site_occupancy
  _atom_site_fract_x
  _atom_site_fract_y
  _atom_site_fract_z
  _atom_site_thermal_displace_type
  _atom_site_B_iso_or_equiv
  _atom_site_type_symbol
  Al1      1.0000 0.50015  0.99992  0.49831  Biso   1.000  Al
  Al2      1.0000 0.00015  0.49992  0.49838  Biso   1.000  Al
  Al3      1.0000 0.99600  0.49994  0.00280  Biso   1.000  Al
  Al4      1.0000 0.49597  0.99995  0.00276  Biso   1.000  Al
  C1       1.0000 0.26207  0.21157  0.66749  Biso   1.000  C 
  C2       1.0000 0.79509  0.67827  0.45534  Biso   1.000  C 
  C3       1.0000 0.85227  0.60381  0.39872  Biso   1.000  C 
  C4       1.0000 0.28210  0.78402  0.28791  Biso   1.000  C 
  C5       1.0000 0.79539  0.32153  0.45493  Biso   1.000  C 
  C6       1.0000 0.29537  0.82153  0.45494  Biso   1.000  C 
  C7       1.0000 0.71522  0.78283  0.71672  Biso   1.000  C 
  C8       1.0000 0.78212  0.28402  0.28789  Biso   1.000  C 
  C9       1.0000 0.85251  0.39599  0.39822  Biso   1.000  C 
  C10      1.0000 0.35248  0.89600  0.39821  Biso   1.000  C 
  C11      1.0000 0.14709  0.60489  0.59881  Biso   1.000  C 
  C12      1.0000 0.76203  0.71156  0.66754  Biso   1.000  C 
  C13      1.0000 0.73574  0.21365  0.33584  Biso   1.000  C 
  C14      1.0000 0.26206  0.78840  0.66746  Biso   1.000  C 
  C15      1.0000 0.20172  0.67885  0.54868  Biso   1.000  C 
  C16      1.0000 0.70149  0.82096  0.54870  Biso   1.000  C 
  C17      1.0000 0.29509  0.17828  0.45531  Biso   1.000  C 
  C18      1.0000 0.76207  0.28839  0.66745  Biso   1.000  C 
  C19      1.0000 0.64695  0.89495  0.59864  Biso   1.000  C 
  C20      1.0000 0.20151  0.32097  0.54871  Biso   1.000  C 
  C21      1.0000 0.23516  0.28601  0.33629  Biso   1.000  C 
  C22      1.0000 0.73518  0.78600  0.33628  Biso   1.000  C 
  C23      1.0000 0.23573  0.71365  0.33588  Biso   1.000  C 
  C24      1.0000 0.64708  0.10488  0.59877  Biso   1.000  C 
  C25      1.0000 0.21525  0.28283  0.71670  Biso   1.000  C 
  C26      1.0000 0.21520  0.71714  0.71682  Biso   1.000  C 
  C27      1.0000 0.35228  0.10382  0.39866  Biso   1.000  C 
  C28      1.0000 0.14697  0.39496  0.59864  Biso   1.000  C 
  C29      1.0000 0.78153  0.71562  0.28849  Biso   1.000  C 
  C30      1.0000 0.71520  0.21714  0.71680  Biso   1.000  C 
  C31      1.0000 0.70171  0.17885  0.54865  Biso   1.000  C 
  C32      1.0000 0.28150  0.21563  0.28850  Biso   1.000  C 
  H1       1.0000 0.68364  0.00024  0.06357  Biso   1.000  H 
  H2       1.0000 0.30856  0.18888  0.12316  Biso   1.000  H 
  H3       1.0000 0.72412  0.18449  0.20877  Biso   1.000  H 
  H4       1.0000 0.22410  0.68448  0.20882  Biso   1.000  H 
  H5       1.0000 0.31665  0.00058  0.93018  Biso   1.000  H 
  H6       1.0000 0.81665  0.50062  0.93025  Biso   1.000  H 
  H7       1.0000 0.77313  0.68263  0.79580  Biso   1.000  H 
  H8       1.0000 0.18365  0.50026  0.06362  Biso   1.000  H 
  H9       1.0000 0.15376  0.36285  0.92476  Biso   1.000  H 
  H10      1.0000 0.80862  0.68888  0.12314  Biso   1.000  H 
  H11      1.0000 0.77295  0.31745  0.79584  Biso   1.000  H 
  H12      1.0000 0.80947  0.31066  0.12226  Biso   1.000  H 
  H13      1.0000 0.27317  0.18263  0.79573  Biso   1.000  H 
  H14      1.0000 0.72336  0.81505  0.20935  Biso   1.000  H 
  H15      1.0000 0.30945  0.81064  0.12229  Biso   1.000  H 
  H16      1.0000 0.65332  0.13726  0.92529  Biso   1.000  H 
  H17      1.0000 0.27294  0.81746  0.79584  Biso   1.000  H 
  H18      1.0000 0.15336  0.63727  0.92531  Biso   1.000  H 
  H19      1.0000 0.22333  0.31506  0.20936  Biso   1.000  H 
  H20      1.0000 0.65370  0.86284  0.92482  Biso   1.000  H 
  O1       1.0000 0.18420  0.31256  0.92492  Biso   1.000  O 
  O2       1.0000 0.62527  0.07453  0.45496  Biso   1.000  O 
  O3       1.0000 0.41620  0.99996  0.83244  Biso   1.000  O 
  O4       1.0000 0.12253  0.57449  0.79318  Biso   1.000  O 
  O5       1.0000 0.12264  0.42550  0.79271  Biso   1.000  O 
  O6       1.0000 0.12526  0.57454  0.45501  Biso   1.000  O 
  O7       1.0000 0.62249  0.07449  0.79316  Biso   1.000  O 
  O8       1.0000 0.18385  0.68756  0.92536  Biso   1.000  O 
  O9       1.0000 0.87676  0.42522  0.54122  Biso   1.000  O 
  O10      1.0000 0.62262  0.92549  0.79268  Biso   1.000  O 
  O11      1.0000 0.68383  0.18755  0.92535  Biso   1.000  O 
  O12      1.0000 0.37573  0.07474  0.20671  Biso   1.000  O 
  O13      1.0000 0.37608  0.92496  0.20607  Biso   1.000  O 
  O14      1.0000 0.87574  0.57473  0.20675  Biso   1.000  O 
  O15      1.0000 0.91621  0.49996  0.83247  Biso   1.000  O 
  O16      1.0000 0.62497  0.92519  0.45496  Biso   1.000  O 
  O17      1.0000 0.12501  0.42520  0.45496  Biso   1.000  O 
  O18      1.0000 0.87676  0.57470  0.54151  Biso   1.000  O 
  O19      1.0000 0.87611  0.42496  0.20611  Biso   1.000  O 
  O20      1.0000 0.58405  0.99996  0.16277  Biso   1.000  O 
  O21      1.0000 0.37673  0.92524  0.54119  Biso   1.000  O 
  O22      1.0000 0.68414  0.81256  0.92495  Biso   1.000  O 
  O23      1.0000 0.08406  0.49996  0.16282  Biso   1.000  O 
  O24      1.0000 0.37678  0.07471  0.54143  Biso   1.000  O 
