data_image0
_cell_length_a       12.6722
_cell_length_b       18.1587
_cell_length_c       6.7381
_cell_angle_alpha    90.0273
_cell_angle_beta     57.7593
_cell_angle_gamma    90.0207

_symmetry_space_group_name_H-M    "P 1"
_symmetry_int_tables_number       1

loop_
  _symmetry_equiv_pos_as_xyz
  'x, y, z'

loop_
  _atom_site_label
  _atom_site_occupancy
  _atom_site_fract_x
  _atom_site_fract_y
  _atom_site_fract_z
  _atom_site_thermal_displace_type
  _atom_site_B_iso_or_equiv
  _atom_site_type_symbol
  Al1      1.0000 0.50104  0.99992  0.49765  Biso   1.000  Al
  Al2      1.0000 0.00107  0.49992  0.49757  Biso   1.000  Al
  Al3      1.0000 0.99724  0.49990  0.00152  Biso   1.000  Al
  Al4      1.0000 0.49725  0.99990  0.00157  Biso   1.000  Al
  C1       1.0000 0.26582  0.21078  0.66373  Biso   1.000  C 
  C2       1.0000 0.80159  0.67866  0.44876  Biso   1.000  C 
  C3       1.0000 0.86298  0.60494  0.38779  Biso   1.000  C 
  C4       1.0000 0.28467  0.78335  0.28524  Biso   1.000  C 
  C5       1.0000 0.80155  0.32121  0.44859  Biso   1.000  C 
  C6       1.0000 0.30155  0.82121  0.44860  Biso   1.000  C 
  C7       1.0000 0.71279  0.78129  0.71921  Biso   1.000  C 
  C8       1.0000 0.78467  0.28334  0.28524  Biso   1.000  C 
  C9       1.0000 0.86288  0.39495  0.38753  Biso   1.000  C 
  C10      1.0000 0.36289  0.89495  0.38757  Biso   1.000  C 
  C11      1.0000 0.13794  0.60631  0.60811  Biso   1.000  C 
  C12      1.0000 0.76580  0.71077  0.66372  Biso   1.000  C 
  C13      1.0000 0.73259  0.21361  0.33909  Biso   1.000  C 
  C14      1.0000 0.26567  0.78924  0.66371  Biso   1.000  C 
  C15      1.0000 0.19614  0.67989  0.55433  Biso   1.000  C 
  C16      1.0000 0.69607  0.81994  0.55434  Biso   1.000  C 
  C17      1.0000 0.30159  0.17866  0.44880  Biso   1.000  C 
  C18      1.0000 0.76568  0.28924  0.66369  Biso   1.000  C 
  C19      1.0000 0.63776  0.89347  0.60807  Biso   1.000  C 
  C20      1.0000 0.19606  0.31994  0.55432  Biso   1.000  C 
  C21      1.0000 0.23244  0.28607  0.33919  Biso   1.000  C 
  C22      1.0000 0.73246  0.78609  0.33919  Biso   1.000  C 
  C23      1.0000 0.23259  0.71362  0.33907  Biso   1.000  C 
  C24      1.0000 0.63793  0.10631  0.60816  Biso   1.000  C 
  C25      1.0000 0.21280  0.28130  0.71919  Biso   1.000  C 
  C26      1.0000 0.21267  0.71870  0.71927  Biso   1.000  C 
  C27      1.0000 0.36297  0.10494  0.38786  Biso   1.000  C 
  C28      1.0000 0.13774  0.39347  0.60803  Biso   1.000  C 
  C29      1.0000 0.78458  0.71637  0.28545  Biso   1.000  C 
  C30      1.0000 0.71268  0.21870  0.71927  Biso   1.000  C 
  C31      1.0000 0.69615  0.17989  0.55434  Biso   1.000  C 
  C32      1.0000 0.28458  0.21637  0.28547  Biso   1.000  C 
  H1       1.0000 0.66748  0.00011  0.08016  Biso   1.000  H 
  H2       1.0000 0.31352  0.19045  0.11831  Biso   1.000  H 
  H3       1.0000 0.71837  0.18415  0.21476  Biso   1.000  H 
  H4       1.0000 0.21838  0.68417  0.21472  Biso   1.000  H 
  H5       1.0000 0.33452  0.00040  0.91195  Biso   1.000  H 
  H6       1.0000 0.83452  0.50040  0.91188  Biso   1.000  H 
  H7       1.0000 0.77928  0.68140  0.78936  Biso   1.000  H 
  H8       1.0000 0.16747  0.50011  0.08009  Biso   1.000  H 
  H9       1.0000 0.14477  0.35992  0.93403  Biso   1.000  H 
  H10      1.0000 0.81353  0.69047  0.11828  Biso   1.000  H 
  H11      1.0000 0.77907  0.31873  0.78934  Biso   1.000  H 
  H12      1.0000 0.81364  0.30915  0.11798  Biso   1.000  H 
  H13      1.0000 0.27930  0.18142  0.78937  Biso   1.000  H 
  H14      1.0000 0.71817  0.81543  0.21485  Biso   1.000  H 
  H15      1.0000 0.31365  0.80916  0.11799  Biso   1.000  H 
  H16      1.0000 0.64450  0.14020  0.93435  Biso   1.000  H 
  H17      1.0000 0.27905  0.81872  0.78938  Biso   1.000  H 
  H18      1.0000 0.14448  0.64019  0.93433  Biso   1.000  H 
  H19      1.0000 0.21814  0.31541  0.21485  Biso   1.000  H 
  H20      1.0000 0.64474  0.85989  0.93409  Biso   1.000  H 
  O1       1.0000 0.17889  0.30980  0.93016  Biso   1.000  O 
  O2       1.0000 0.61555  0.07590  0.46474  Biso   1.000  O 
  O3       1.0000 0.42485  0.99996  0.82361  Biso   1.000  O 
  O4       1.0000 0.11196  0.57631  0.80399  Biso   1.000  O 
  O5       1.0000 0.11200  0.42363  0.80365  Biso   1.000  O 
  O6       1.0000 0.11556  0.57590  0.46468  Biso   1.000  O 
  O7       1.0000 0.61195  0.07631  0.80404  Biso   1.000  O 
  O8       1.0000 0.17855  0.69035  0.93046  Biso   1.000  O 
  O9       1.0000 0.88828  0.42392  0.52951  Biso   1.000  O 
  O10      1.0000 0.61201  0.92362  0.80369  Biso   1.000  O 
  O11      1.0000 0.67858  0.19035  0.93044  Biso   1.000  O 
  O12      1.0000 0.38743  0.07614  0.19479  Biso   1.000  O 
  O13      1.0000 0.38757  0.92357  0.19422  Biso   1.000  O 
  O14      1.0000 0.88744  0.57616  0.19470  Biso   1.000  O 
  O15      1.0000 0.92485  0.49997  0.82356  Biso   1.000  O 
  O16      1.0000 0.61508  0.92370  0.46490  Biso   1.000  O 
  O17      1.0000 0.11507  0.42369  0.46487  Biso   1.000  O 
  O18      1.0000 0.88865  0.57617  0.52956  Biso   1.000  O 
  O19      1.0000 0.88754  0.42357  0.19419  Biso   1.000  O 
  O20      1.0000 0.57713  0.99989  0.16985  Biso   1.000  O 
  O21      1.0000 0.38829  0.92391  0.52956  Biso   1.000  O 
  O22      1.0000 0.67886  0.80977  0.93021  Biso   1.000  O 
  O23      1.0000 0.07713  0.49988  0.16979  Biso   1.000  O 
  O24      1.0000 0.38863  0.07617  0.52965  Biso   1.000  O 
