data_image0
_cell_length_a       12.2452
_cell_length_b       18.3825
_cell_length_c       6.73759
_cell_angle_alpha    90.0199
_cell_angle_beta     56.593
_cell_angle_gamma    90.016

_symmetry_space_group_name_H-M    "P 1"
_symmetry_int_tables_number       1

loop_
  _symmetry_equiv_pos_as_xyz
  'x, y, z'

loop_
  _atom_site_label
  _atom_site_occupancy
  _atom_site_fract_x
  _atom_site_fract_y
  _atom_site_fract_z
  _atom_site_thermal_displace_type
  _atom_site_B_iso_or_equiv
  _atom_site_type_symbol
  Al1      1.0000 0.50136  0.99994  0.49745  Biso   1.000  Al
  Al2      1.0000 0.00137  0.49994  0.49735  Biso   1.000  Al
  Al3      1.0000 0.99736  0.49993  0.00163  Biso   1.000  Al
  Al4      1.0000 0.49738  0.99992  0.00167  Biso   1.000  Al
  C1       1.0000 0.26312  0.21064  0.66611  Biso   1.000  C 
  C2       1.0000 0.79830  0.67821  0.45168  Biso   1.000  C 
  C3       1.0000 0.85825  0.60425  0.39220  Biso   1.000  C 
  C4       1.0000 0.28360  0.78372  0.28611  Biso   1.000  C 
  C5       1.0000 0.79836  0.32164  0.45143  Biso   1.000  C 
  C6       1.0000 0.29837  0.82164  0.45146  Biso   1.000  C 
  C7       1.0000 0.71291  0.78153  0.71901  Biso   1.000  C 
  C8       1.0000 0.78358  0.28372  0.28612  Biso   1.000  C 
  C9       1.0000 0.85821  0.39564  0.39200  Biso   1.000  C 
  C10      1.0000 0.35822  0.89564  0.39204  Biso   1.000  C 
  C11      1.0000 0.14261  0.60565  0.60380  Biso   1.000  C 
  C12      1.0000 0.76309  0.71062  0.66612  Biso   1.000  C 
  C13      1.0000 0.73433  0.21361  0.33736  Biso   1.000  C 
  C14      1.0000 0.26303  0.78934  0.66604  Biso   1.000  C 
  C15      1.0000 0.19863  0.67955  0.55194  Biso   1.000  C 
  C16      1.0000 0.69841  0.82026  0.55212  Biso   1.000  C 
  C17      1.0000 0.29831  0.17822  0.45169  Biso   1.000  C 
  C18      1.0000 0.76303  0.28934  0.66604  Biso   1.000  C 
  C19      1.0000 0.64236  0.89415  0.60391  Biso   1.000  C 
  C20      1.0000 0.19841  0.32025  0.55209  Biso   1.000  C 
  C21      1.0000 0.23397  0.28609  0.33767  Biso   1.000  C 
  C22      1.0000 0.73397  0.78610  0.33767  Biso   1.000  C 
  C23      1.0000 0.23434  0.71361  0.33733  Biso   1.000  C 
  C24      1.0000 0.64261  0.10565  0.60386  Biso   1.000  C 
  C25      1.0000 0.21294  0.28154  0.71899  Biso   1.000  C 
  C26      1.0000 0.21292  0.71841  0.71896  Biso   1.000  C 
  C27      1.0000 0.35826  0.10425  0.39224  Biso   1.000  C 
  C28      1.0000 0.14236  0.39415  0.60387  Biso   1.000  C 
  C29      1.0000 0.78332  0.71601  0.28648  Biso   1.000  C 
  C30      1.0000 0.71293  0.21842  0.71897  Biso   1.000  C 
  C31      1.0000 0.69863  0.17956  0.55197  Biso   1.000  C 
  C32      1.0000 0.28331  0.21600  0.28650  Biso   1.000  C 
  H1       1.0000 0.67579  0.00012  0.07254  Biso   1.000  H 
  H2       1.0000 0.31169  0.18988  0.11975  Biso   1.000  H 
  H3       1.0000 0.72181  0.18407  0.21143  Biso   1.000  H 
  H4       1.0000 0.22184  0.68408  0.21138  Biso   1.000  H 
  H5       1.0000 0.32685  0.00045  0.91935  Biso   1.000  H 
  H6       1.0000 0.82684  0.50047  0.91925  Biso   1.000  H 
  H7       1.0000 0.77507  0.68126  0.79322  Biso   1.000  H 
  H8       1.0000 0.17577  0.50010  0.07244  Biso   1.000  H 
  H9       1.0000 0.14776  0.36071  0.93123  Biso   1.000  H 
  H10      1.0000 0.81172  0.68990  0.11970  Biso   1.000  H 
  H11      1.0000 0.77486  0.31882  0.79317  Biso   1.000  H 
  H12      1.0000 0.81203  0.30976  0.11927  Biso   1.000  H 
  H13      1.0000 0.27511  0.18128  0.79320  Biso   1.000  H 
  H14      1.0000 0.72130  0.81554  0.21184  Biso   1.000  H 
  H15      1.0000 0.31207  0.80977  0.11926  Biso   1.000  H 
  H16      1.0000 0.64767  0.13934  0.93140  Biso   1.000  H 
  H17      1.0000 0.27484  0.81881  0.79322  Biso   1.000  H 
  H18      1.0000 0.14765  0.63932  0.93138  Biso   1.000  H 
  H19      1.0000 0.22128  0.31552  0.21183  Biso   1.000  H 
  H20      1.0000 0.64775  0.86070  0.93128  Biso   1.000  H 
  O1       1.0000 0.17962  0.31037  0.92944  Biso   1.000  O 
  O2       1.0000 0.62078  0.07515  0.45990  Biso   1.000  O 
  O3       1.0000 0.42154  0.99998  0.82692  Biso   1.000  O 
  O4       1.0000 0.11749  0.57548  0.79889  Biso   1.000  O 
  O5       1.0000 0.11737  0.42441  0.79880  Biso   1.000  O 
  O6       1.0000 0.12079  0.57515  0.45985  Biso   1.000  O 
  O7       1.0000 0.61751  0.07548  0.79893  Biso   1.000  O 
  O8       1.0000 0.17944  0.68970  0.92961  Biso   1.000  O 
  O9       1.0000 0.88338  0.42466  0.53428  Biso   1.000  O 
  O10      1.0000 0.61739  0.92440  0.79881  Biso   1.000  O 
  O11      1.0000 0.67946  0.18970  0.92961  Biso   1.000  O 
  O12      1.0000 0.38252  0.07544  0.19939  Biso   1.000  O 
  O13      1.0000 0.38256  0.92437  0.19909  Biso   1.000  O 
  O14      1.0000 0.88248  0.57544  0.19937  Biso   1.000  O 
  O15      1.0000 0.92153  0.49998  0.82687  Biso   1.000  O 
  O16      1.0000 0.62039  0.92455  0.46010  Biso   1.000  O 
  O17      1.0000 0.12041  0.42454  0.46004  Biso   1.000  O 
  O18      1.0000 0.88358  0.57532  0.53433  Biso   1.000  O 
  O19      1.0000 0.88255  0.42437  0.19905  Biso   1.000  O 
  O20      1.0000 0.58106  0.99991  0.16632  Biso   1.000  O 
  O21      1.0000 0.38337  0.92467  0.53433  Biso   1.000  O 
  O22      1.0000 0.67959  0.81035  0.92950  Biso   1.000  O 
  O23      1.0000 0.08105  0.49991  0.16626  Biso   1.000  O 
  O24      1.0000 0.38357  0.07532  0.53441  Biso   1.000  O 
