data_image0
_cell_length_a       13.1215
_cell_length_b       17.8904
_cell_length_c       6.73358
_cell_angle_alpha    90.0154
_cell_angle_beta     59.0203
_cell_angle_gamma    90.011

_symmetry_space_group_name_H-M    "P 1"
_symmetry_int_tables_number       1

loop_
  _symmetry_equiv_pos_as_xyz
  'x, y, z'

loop_
  _atom_site_label
  _atom_site_occupancy
  _atom_site_fract_x
  _atom_site_fract_y
  _atom_site_fract_z
  _atom_site_thermal_displace_type
  _atom_site_B_iso_or_equiv
  _atom_site_type_symbol
  Al1      1.0000 0.50133  0.99995  0.49704  Biso   1.000  Al
  Al2      1.0000 0.00135  0.49995  0.49701  Biso   1.000  Al
  Al3      1.0000 0.99748  0.49992  0.00110  Biso   1.000  Al
  Al4      1.0000 0.49746  0.99992  0.00114  Biso   1.000  Al
  C1       1.0000 0.26806  0.21070  0.66159  Biso   1.000  C 
  C2       1.0000 0.80450  0.67909  0.44596  Biso   1.000  C 
  C3       1.0000 0.86765  0.60577  0.38312  Biso   1.000  C 
  C4       1.0000 0.28557  0.78292  0.28440  Biso   1.000  C 
  C5       1.0000 0.80443  0.32079  0.44595  Biso   1.000  C 
  C6       1.0000 0.30444  0.82079  0.44593  Biso   1.000  C 
  C7       1.0000 0.71217  0.78068  0.71976  Biso   1.000  C 
  C8       1.0000 0.78557  0.28292  0.28443  Biso   1.000  C 
  C9       1.0000 0.86759  0.39412  0.38306  Biso   1.000  C 
  C10      1.0000 0.36759  0.89412  0.38308  Biso   1.000  C 
  C11      1.0000 0.13362  0.60711  0.61233  Biso   1.000  C 
  C12      1.0000 0.76805  0.71069  0.66159  Biso   1.000  C 
  C13      1.0000 0.73105  0.21357  0.34051  Biso   1.000  C 
  C14      1.0000 0.26789  0.78927  0.66167  Biso   1.000  C 
  C15      1.0000 0.19378  0.68033  0.55659  Biso   1.000  C 
  C16      1.0000 0.69371  0.81950  0.55660  Biso   1.000  C 
  C17      1.0000 0.30449  0.17909  0.44598  Biso   1.000  C 
  C18      1.0000 0.76789  0.28927  0.66167  Biso   1.000  C 
  C19      1.0000 0.63349  0.89270  0.61232  Biso   1.000  C 
  C20      1.0000 0.19372  0.31950  0.55658  Biso   1.000  C 
  C21      1.0000 0.23092  0.28618  0.34059  Biso   1.000  C 
  C22      1.0000 0.73091  0.78618  0.34059  Biso   1.000  C 
  C23      1.0000 0.23106  0.71357  0.34048  Biso   1.000  C 
  C24      1.0000 0.63361  0.10711  0.61237  Biso   1.000  C 
  C25      1.0000 0.21218  0.28068  0.71975  Biso   1.000  C 
  C26      1.0000 0.21206  0.71927  0.71986  Biso   1.000  C 
  C27      1.0000 0.36764  0.10577  0.38316  Biso   1.000  C 
  C28      1.0000 0.13350  0.39270  0.61230  Biso   1.000  C 
  C29      1.0000 0.78549  0.71686  0.28452  Biso   1.000  C 
  C30      1.0000 0.71206  0.21928  0.71988  Biso   1.000  C 
  C31      1.0000 0.69378  0.18033  0.55661  Biso   1.000  C 
  C32      1.0000 0.28549  0.21686  0.28454  Biso   1.000  C 
  H1       1.0000 0.65966  0.00008  0.08816  Biso   1.000  H 
  H2       1.0000 0.31477  0.19128  0.11700  Biso   1.000  H 
  H3       1.0000 0.71552  0.18406  0.21737  Biso   1.000  H 
  H4       1.0000 0.21552  0.68407  0.21733  Biso   1.000  H 
  H5       1.0000 0.34269  0.00026  0.90297  Biso   1.000  H 
  H6       1.0000 0.84270  0.50026  0.90295  Biso   1.000  H 
  H7       1.0000 0.78303  0.68138  0.78596  Biso   1.000  H 
  H8       1.0000 0.15968  0.50006  0.08813  Biso   1.000  H 
  H9       1.0000 0.14126  0.35834  0.93779  Biso   1.000  H 
  H10      1.0000 0.81478  0.69129  0.11698  Biso   1.000  H 
  H11      1.0000 0.78275  0.31866  0.78611  Biso   1.000  H 
  H12      1.0000 0.81491  0.30842  0.11680  Biso   1.000  H 
  H13      1.0000 0.28303  0.18139  0.78597  Biso   1.000  H 
  H14      1.0000 0.71529  0.81560  0.21748  Biso   1.000  H 
  H15      1.0000 0.31491  0.80843  0.11679  Biso   1.000  H 
  H16      1.0000 0.64106  0.14169  0.93808  Biso   1.000  H 
  H17      1.0000 0.28275  0.81866  0.78611  Biso   1.000  H 
  H18      1.0000 0.14108  0.64168  0.93804  Biso   1.000  H 
  H19      1.0000 0.21530  0.31560  0.21747  Biso   1.000  H 
  H20      1.0000 0.64125  0.85833  0.93782  Biso   1.000  H 
  O1       1.0000 0.17728  0.30841  0.93177  Biso   1.000  O 
  O2       1.0000 0.61069  0.07678  0.46932  Biso   1.000  O 
  O3       1.0000 0.42874  0.99996  0.81943  Biso   1.000  O 
  O4       1.0000 0.10691  0.57738  0.80911  Biso   1.000  O 
  O5       1.0000 0.10690  0.42252  0.80897  Biso   1.000  O 
  O6       1.0000 0.11071  0.57677  0.46927  Biso   1.000  O 
  O7       1.0000 0.60690  0.07738  0.80916  Biso   1.000  O 
  O8       1.0000 0.17703  0.69164  0.93202  Biso   1.000  O 
  O9       1.0000 0.89361  0.42283  0.52463  Biso   1.000  O 
  O10      1.0000 0.60689  0.92251  0.80901  Biso   1.000  O 
  O11      1.0000 0.67702  0.19165  0.93205  Biso   1.000  O 
  O12      1.0000 0.39245  0.07716  0.18952  Biso   1.000  O 
  O13      1.0000 0.39249  0.92266  0.18935  Biso   1.000  O 
  O14      1.0000 0.89248  0.57716  0.18949  Biso   1.000  O 
  O15      1.0000 0.92875  0.49995  0.81941  Biso   1.000  O 
  O16      1.0000 0.61048  0.92297  0.46939  Biso   1.000  O 
  O17      1.0000 0.11049  0.42297  0.46934  Biso   1.000  O 
  O18      1.0000 0.89372  0.57713  0.52465  Biso   1.000  O 
  O19      1.0000 0.89250  0.42266  0.18934  Biso   1.000  O 
  O20      1.0000 0.57359  0.99994  0.17318  Biso   1.000  O 
  O21      1.0000 0.39360  0.92282  0.52463  Biso   1.000  O 
  O22      1.0000 0.67727  0.80840  0.93179  Biso   1.000  O 
  O23      1.0000 0.07361  0.49994  0.17315  Biso   1.000  O 
  O24      1.0000 0.39371  0.07713  0.52467  Biso   1.000  O 
