data_image0
_cell_length_a       11.1483
_cell_length_b       18.9048
_cell_length_c       6.7539
_cell_angle_alpha    90.0444
_cell_angle_beta     52.5365
_cell_angle_gamma    90.0107

_symmetry_space_group_name_H-M    "P 1"
_symmetry_int_tables_number       1

loop_
  _symmetry_equiv_pos_as_xyz
  'x, y, z'

loop_
  _atom_site_label
  _atom_site_occupancy
  _atom_site_fract_x
  _atom_site_fract_y
  _atom_site_fract_z
  _atom_site_thermal_displace_type
  _atom_site_B_iso_or_equiv
  _atom_site_type_symbol
  Al1      1.0000 0.49938  0.99992  0.49923  Biso   1.000  Al
  Al2      1.0000 0.99946  0.49992  0.49915  Biso   1.000  Al
  Al3      1.0000 0.99571  0.49993  0.00330  Biso   1.000  Al
  Al4      1.0000 0.49569  0.99993  0.00337  Biso   1.000  Al
  C1       1.0000 0.26375  0.21263  0.66608  Biso   1.000  C 
  C2       1.0000 0.78749  0.67780  0.46299  Biso   1.000  C 
  C3       1.0000 0.84108  0.60296  0.40984  Biso   1.000  C 
  C4       1.0000 0.27124  0.78556  0.29840  Biso   1.000  C 
  C5       1.0000 0.78786  0.32201  0.46222  Biso   1.000  C 
  C6       1.0000 0.28783  0.82200  0.46226  Biso   1.000  C 
  C7       1.0000 0.72319  0.78428  0.70890  Biso   1.000  C 
  C8       1.0000 0.77129  0.28556  0.29835  Biso   1.000  C 
  C9       1.0000 0.84151  0.39681  0.40885  Biso   1.000  C 
  C10      1.0000 0.34147  0.89681  0.40889  Biso   1.000  C 
  C11      1.0000 0.15663  0.60418  0.58945  Biso   1.000  C 
  C12      1.0000 0.76380  0.71264  0.66602  Biso   1.000  C 
  C13      1.0000 0.73100  0.21485  0.34030  Biso   1.000  C 
  C14      1.0000 0.26341  0.78744  0.66611  Biso   1.000  C 
  C15      1.0000 0.20637  0.67860  0.54394  Biso   1.000  C 
  C16      1.0000 0.70629  0.82126  0.54387  Biso   1.000  C 
  C17      1.0000 0.28743  0.17778  0.46307  Biso   1.000  C 
  C18      1.0000 0.76338  0.28744  0.66613  Biso   1.000  C 
  C19      1.0000 0.65671  0.89571  0.58903  Biso   1.000  C 
  C20      1.0000 0.20626  0.32125  0.54387  Biso   1.000  C 
  C21      1.0000 0.23006  0.28469  0.34120  Biso   1.000  C 
  C22      1.0000 0.73013  0.78471  0.34115  Biso   1.000  C 
  C23      1.0000 0.23097  0.71485  0.34034  Biso   1.000  C 
  C24      1.0000 0.65659  0.10419  0.58947  Biso   1.000  C 
  C25      1.0000 0.22315  0.28427  0.70892  Biso   1.000  C 
  C26      1.0000 0.22269  0.71583  0.70937  Biso   1.000  C 
  C27      1.0000 0.34102  0.10295  0.40993  Biso   1.000  C 
  C28      1.0000 0.15672  0.39570  0.58899  Biso   1.000  C 
  C29      1.0000 0.77028  0.71397  0.29961  Biso   1.000  C 
  C30      1.0000 0.72264  0.21583  0.70941  Biso   1.000  C 
  C31      1.0000 0.70634  0.17860  0.54393  Biso   1.000  C 
  C32      1.0000 0.27021  0.21394  0.29968  Biso   1.000  C 
  H1       1.0000 0.70159  0.00023  0.04654  Biso   1.000  H 
  H2       1.0000 0.28991  0.18601  0.14142  Biso   1.000  H 
  H3       1.0000 0.71733  0.18648  0.21527  Biso   1.000  H 
  H4       1.0000 0.21728  0.68648  0.21532  Biso   1.000  H 
  H5       1.0000 0.29815  0.00043  0.94921  Biso   1.000  H 
  H6       1.0000 0.79819  0.50044  0.94915  Biso   1.000  H 
  H7       1.0000 0.77802  0.68463  0.79124  Biso   1.000  H 
  H8       1.0000 0.20165  0.50021  0.04641  Biso   1.000  H 
  H9       1.0000 0.17145  0.36557  0.90670  Biso   1.000  H 
  H10      1.0000 0.79000  0.68604  0.14131  Biso   1.000  H 
  H11      1.0000 0.77712  0.31566  0.79169  Biso   1.000  H 
  H12      1.0000 0.79159  0.31325  0.13937  Biso   1.000  H 
  H13      1.0000 0.27799  0.18463  0.79128  Biso   1.000  H 
  H14      1.0000 0.71598  0.81288  0.21645  Biso   1.000  H 
  H15      1.0000 0.29152  0.81326  0.13945  Biso   1.000  H 
  H16      1.0000 0.67040  0.13478  0.90797  Biso   1.000  H 
  H17      1.0000 0.27717  0.81565  0.79165  Biso   1.000  H 
  H18      1.0000 0.17049  0.63476  0.90790  Biso   1.000  H 
  H19      1.0000 0.21590  0.31286  0.21651  Biso   1.000  H 
  H20      1.0000 0.67147  0.86557  0.90671  Biso   1.000  H 
  O1       1.0000 0.20123  0.31563  0.90804  Biso   1.000  O 
  O2       1.0000 0.63554  0.07372  0.44529  Biso   1.000  O 
  O3       1.0000 0.40758  0.99990  0.84138  Biso   1.000  O 
  O4       1.0000 0.13461  0.57340  0.78099  Biso   1.000  O 
  O5       1.0000 0.13517  0.42670  0.77997  Biso   1.000  O 
  O6       1.0000 0.13560  0.57373  0.44523  Biso   1.000  O 
  O7       1.0000 0.63456  0.07341  0.78104  Biso   1.000  O 
  O8       1.0000 0.20013  0.68474  0.90923  Biso   1.000  O 
  O9       1.0000 0.86463  0.42632  0.55262  Biso   1.000  O 
  O10      1.0000 0.63517  0.92671  0.77999  Biso   1.000  O 
  O11      1.0000 0.70003  0.18476  0.90931  Biso   1.000  O 
  O12      1.0000 0.36382  0.07368  0.21903  Biso   1.000  O 
  O13      1.0000 0.36470  0.92584  0.21751  Biso   1.000  O 
  O14      1.0000 0.86388  0.57369  0.21893  Biso   1.000  O 
  O15      1.0000 0.90762  0.49991  0.84132  Biso   1.000  O 
  O16      1.0000 0.63536  0.92599  0.44510  Biso   1.000  O 
  O17      1.0000 0.13539  0.42599  0.44504  Biso   1.000  O 
  O18      1.0000 0.86462  0.57363  0.55325  Biso   1.000  O 
  O19      1.0000 0.86469  0.42584  0.21751  Biso   1.000  O 
  O20      1.0000 0.59215  0.99997  0.15508  Biso   1.000  O 
  O21      1.0000 0.36457  0.92633  0.55269  Biso   1.000  O 
  O22      1.0000 0.70124  0.81564  0.90807  Biso   1.000  O 
  O23      1.0000 0.09221  0.49995  0.15502  Biso   1.000  O 
  O24      1.0000 0.36456  0.07363  0.55334  Biso   1.000  O 
