data_image0
_cell_length_a       9.40831
_cell_length_b       19.3777
_cell_length_c       6.62321
_cell_angle_alpha    89.9916
_cell_angle_beta     36.1081
_cell_angle_gamma    90.0078

_symmetry_space_group_name_H-M    "P 1"
_symmetry_int_tables_number       1

loop_
  _symmetry_equiv_pos_as_xyz
  'x, y, z'

loop_
  _atom_site_label
  _atom_site_occupancy
  _atom_site_fract_x
  _atom_site_fract_y
  _atom_site_fract_z
  _atom_site_thermal_displace_type
  _atom_site_B_iso_or_equiv
  _atom_site_type_symbol
  Al1      1.0000 0.48835  0.99992  0.51172  Biso   1.000  Al
  Al2      1.0000 0.98873  0.49996  0.51142  Biso   1.000  Al
  Al3      1.0000 0.98412  0.49998  0.01662  Biso   1.000  Al
  Al4      1.0000 0.48372  0.99989  0.01691  Biso   1.000  Al
  C1       1.0000 0.25405  0.21871  0.68743  Biso   1.000  C 
  C2       1.0000 0.74549  0.67970  0.52429  Biso   1.000  C 
  C3       1.0000 0.76356  0.60365  0.51708  Biso   1.000  C 
  C4       1.0000 0.23705  0.78934  0.34235  Biso   1.000  C 
  C5       1.0000 0.74241  0.32118  0.52732  Biso   1.000  C 
  C6       1.0000 0.24522  0.82018  0.52451  Biso   1.000  C 
  C7       1.0000 0.75764  0.79172  0.66839  Biso   1.000  C 
  C8       1.0000 0.73452  0.29033  0.34483  Biso   1.000  C 
  C9       1.0000 0.75936  0.39723  0.52195  Biso   1.000  C 
  C10      1.0000 0.26300  0.89624  0.51761  Biso   1.000  C 
  C11      1.0000 0.22652  0.60202  0.49054  Biso   1.000  C 
  C12      1.0000 0.75672  0.71976  0.68492  Biso   1.000  C 
  C13      1.0000 0.73663  0.21947  0.32546  Biso   1.000  C 
  C14      1.0000 0.25661  0.78012  0.68499  Biso   1.000  C 
  C15      1.0000 0.24904  0.67673  0.48473  Biso   1.000  C 
  C16      1.0000 0.74874  0.82315  0.48506  Biso   1.000  C 
  C17      1.0000 0.24234  0.17870  0.52728  Biso   1.000  C 
  C18      1.0000 0.75397  0.28113  0.68757  Biso   1.000  C 
  C19      1.0000 0.72590  0.89786  0.49119  Biso   1.000  C 
  C20      1.0000 0.24595  0.32218  0.48806  Biso   1.000  C 
  C21      1.0000 0.23654  0.28047  0.32560  Biso   1.000  C 
  C22      1.0000 0.73886  0.78139  0.32330  Biso   1.000  C 
  C23      1.0000 0.23902  0.71849  0.32310  Biso   1.000  C 
  C24      1.0000 0.72232  0.10299  0.49532  Biso   1.000  C 
  C25      1.0000 0.25491  0.29066  0.67121  Biso   1.000  C 
  C26      1.0000 0.25779  0.70817  0.66822  Biso   1.000  C 
  C27      1.0000 0.25928  0.10266  0.52183  Biso   1.000  C 
  C28      1.0000 0.22235  0.39690  0.49549  Biso   1.000  C 
  C29      1.0000 0.73721  0.71054  0.34226  Biso   1.000  C 
  C30      1.0000 0.75479  0.20918  0.67128  Biso   1.000  C 
  C31      1.0000 0.74591  0.17772  0.48800  Biso   1.000  C 
  C32      1.0000 0.23439  0.20961  0.34491  Biso   1.000  C 
  H1       1.0000 0.81302  0.00086  0.89181  Biso   1.000  H 
  H2       1.0000 0.22992  0.17694  0.21692  Biso   1.000  H 
  H3       1.0000 0.73235  0.19493  0.18306  Biso   1.000  H 
  H4       1.0000 0.23453  0.69395  0.18095  Biso   1.000  H 
  H5       1.0000 0.16532  0.99923  0.12966  Biso   1.000  H 
  H6       1.0000 0.66572  0.50101  0.12933  Biso   1.000  H 
  H7       1.0000 0.76035  0.69571  0.82875  Biso   1.000  H 
  H8       1.0000 0.31342  0.49896  0.89149  Biso   1.000  H 
  H9       1.0000 0.25163  0.37709  0.80264  Biso   1.000  H 
  H10      1.0000 0.73295  0.67783  0.21418  Biso   1.000  H 
  H11      1.0000 0.75768  0.30518  0.83129  Biso   1.000  H 
  H12      1.0000 0.73015  0.32303  0.21678  Biso   1.000  H 
  H13      1.0000 0.25785  0.19462  0.83100  Biso   1.000  H 
  H14      1.0000 0.73427  0.80592  0.18124  Biso   1.000  H 
  H15      1.0000 0.23262  0.82205  0.21443  Biso   1.000  H 
  H16      1.0000 0.75149  0.12272  0.80263  Biso   1.000  H 
  H17      1.0000 0.26011  0.80418  0.82893  Biso   1.000  H 
  H18      1.0000 0.25596  0.62161  0.79755  Biso   1.000  H 
  H19      1.0000 0.23221  0.30504  0.18330  Biso   1.000  H 
  H20      1.0000 0.75553  0.87827  0.79797  Biso   1.000  H 
  O1       1.0000 0.25892  0.32744  0.83839  Biso   1.000  O 
  O2       1.0000 0.70087  0.07444  0.34875  Biso   1.000  O 
  O3       1.0000 0.34035  0.99961  0.92997  Biso   1.000  O 
  O4       1.0000 0.22029  0.56685  0.66499  Biso   1.000  O 
  O5       1.0000 0.21412  0.43173  0.67263  Biso   1.000  O 
  O6       1.0000 0.20431  0.57362  0.34471  Biso   1.000  O 
  O7       1.0000 0.71423  0.06810  0.67224  Biso   1.000  O 
  O8       1.0000 0.26199  0.67125  0.83501  Biso   1.000  O 
  O9       1.0000 0.77707  0.42586  0.67375  Biso   1.000  O 
  O10      1.0000 0.71946  0.93300  0.66588  Biso   1.000  O 
  O11      1.0000 0.75869  0.17237  0.83855  Biso   1.000  O 
  O12      1.0000 0.26736  0.06977  0.34491  Biso   1.000  O 
  O13      1.0000 0.27262  0.92884  0.33851  Biso   1.000  O 
  O14      1.0000 0.77335  0.57109  0.33778  Biso   1.000  O 
  O15      1.0000 0.84073  0.50033  0.92967  Biso   1.000  O 
  O16      1.0000 0.70367  0.92626  0.34538  Biso   1.000  O 
  O17      1.0000 0.20101  0.42549  0.34882  Biso   1.000  O 
  O18      1.0000 0.78016  0.57477  0.66989  Biso   1.000  O 
  O19      1.0000 0.76734  0.43017  0.34520  Biso   1.000  O 
  O20      1.0000 0.63801  0.00027  0.09064  Biso   1.000  O 
  O21      1.0000 0.27962  0.92511  0.67040  Biso   1.000  O 
  O22      1.0000 0.76181  0.82863  0.83519  Biso   1.000  O 
  O23      1.0000 0.13841  0.49962  0.09032  Biso   1.000  O 
  O24      1.0000 0.27682  0.07399  0.67380  Biso   1.000  O 
