data_image0
_cell_length_a       9.98006
_cell_length_b       19.3082
_cell_length_c       6.75972
_cell_angle_alpha    90.0871
_cell_angle_beta     46.7911
_cell_angle_gamma    90.0284

_symmetry_space_group_name_H-M    "P 1"
_symmetry_int_tables_number       1

loop_
  _symmetry_equiv_pos_as_xyz
  'x, y, z'

loop_
  _atom_site_label
  _atom_site_occupancy
  _atom_site_fract_x
  _atom_site_fract_y
  _atom_site_fract_z
  _atom_site_thermal_displace_type
  _atom_site_B_iso_or_equiv
  _atom_site_type_symbol
  Al1      1.0000 0.49647  0.99988  0.50249  Biso   1.000  Al
  Al2      1.0000 0.99634  0.49989  0.50271  Biso   1.000  Al
  Al3      1.0000 0.99409  0.49987  0.00541  Biso   1.000  Al
  Al4      1.0000 0.49419  0.99987  0.00525  Biso   1.000  Al
  C1       1.0000 0.25980  0.21357  0.67016  Biso   1.000  C 
  C2       1.0000 0.76793  0.67752  0.48343  Biso   1.000  C 
  C3       1.0000 0.81211  0.60205  0.44015  Biso   1.000  C 
  C4       1.0000 0.25302  0.78646  0.31721  Biso   1.000  C 
  C5       1.0000 0.76860  0.32222  0.48234  Biso   1.000  C 
  C6       1.0000 0.26855  0.82224  0.48233  Biso   1.000  C 
  C7       1.0000 0.73674  0.78560  0.69442  Biso   1.000  C 
  C8       1.0000 0.75318  0.28644  0.31708  Biso   1.000  C 
  C9       1.0000 0.81294  0.39764  0.43839  Biso   1.000  C 
  C10      1.0000 0.31298  0.89766  0.43828  Biso   1.000  C 
  C11      1.0000 0.18066  0.60324  0.56470  Biso   1.000  C 
  C12      1.0000 0.75970  0.71356  0.67027  Biso   1.000  C 
  C13      1.0000 0.72944  0.21538  0.34159  Biso   1.000  C 
  C14      1.0000 0.25945  0.78658  0.67034  Biso   1.000  C 
  C15      1.0000 0.22018  0.67809  0.52935  Biso   1.000  C 
  C16      1.0000 0.72019  0.82171  0.52877  Biso   1.000  C 
  C17      1.0000 0.26805  0.17752  0.48329  Biso   1.000  C 
  C18      1.0000 0.75948  0.28657  0.67034  Biso   1.000  C 
  C19      1.0000 0.68089  0.89659  0.56345  Biso   1.000  C 
  C20      1.0000 0.22020  0.32173  0.52877  Biso   1.000  C 
  C21      1.0000 0.22840  0.28403  0.34231  Biso   1.000  C 
  C22      1.0000 0.72838  0.78401  0.34232  Biso   1.000  C 
  C23      1.0000 0.22923  0.71539  0.34176  Biso   1.000  C 
  C24      1.0000 0.68083  0.10322  0.56452  Biso   1.000  C 
  C25      1.0000 0.23681  0.28561  0.69437  Biso   1.000  C 
  C26      1.0000 0.23623  0.71457  0.69527  Biso   1.000  C 
  C27      1.0000 0.31226  0.10206  0.43996  Biso   1.000  C 
  C28      1.0000 0.18084  0.39660  0.56356  Biso   1.000  C 
  C29      1.0000 0.75185  0.71292  0.31861  Biso   1.000  C 
  C30      1.0000 0.73630  0.21455  0.69520  Biso   1.000  C 
  C31      1.0000 0.72034  0.17807  0.52922  Biso   1.000  C 
  C32      1.0000 0.25191  0.21294  0.31854  Biso   1.000  C 
  H1       1.0000 0.74360  0.00047  0.00423  Biso   1.000  H 
  H2       1.0000 0.26036  0.18410  0.17191  Biso   1.000  H 
  H3       1.0000 0.71736  0.18751  0.21471  Biso   1.000  H 
  H4       1.0000 0.21710  0.68753  0.21496  Biso   1.000  H 
  H5       1.0000 0.25269  0.00087  0.99855  Biso   1.000  H 
  H6       1.0000 0.75256  0.50085  0.99874  Biso   1.000  H 
  H7       1.0000 0.77433  0.68618  0.79514  Biso   1.000  H 
  H8       1.0000 0.24349  0.50048  0.00440  Biso   1.000  H 
  H9       1.0000 0.20753  0.36814  0.86854  Biso   1.000  H 
  H10      1.0000 0.76030  0.68408  0.17199  Biso   1.000  H 
  H11      1.0000 0.77350  0.31424  0.79569  Biso   1.000  H 
  H12      1.0000 0.76235  0.31497  0.16952  Biso   1.000  H 
  H13      1.0000 0.27447  0.18619  0.79499  Biso   1.000  H 
  H14      1.0000 0.71591  0.81163  0.21566  Biso   1.000  H 
  H15      1.0000 0.26216  0.81498  0.16966  Biso   1.000  H 
  H16      1.0000 0.70606  0.13233  0.87068  Biso   1.000  H 
  H17      1.0000 0.27354  0.81425  0.79560  Biso   1.000  H 
  H18      1.0000 0.20598  0.63236  0.87075  Biso   1.000  H 
  H19      1.0000 0.21590  0.31165  0.21569  Biso   1.000  H 
  H20      1.0000 0.70750  0.86814  0.86853  Biso   1.000  H 
  O1       1.0000 0.23194  0.31827  0.87558  Biso   1.000  O 
  O2       1.0000 0.66086  0.07262  0.41965  Biso   1.000  O 
  O3       1.0000 0.38584  0.99993  0.86472  Biso   1.000  O 
  O4       1.0000 0.16324  0.57196  0.75145  Biso   1.000  O 
  O5       1.0000 0.16455  0.42830  0.74893  Biso   1.000  O 
  O6       1.0000 0.16068  0.57263  0.41983  Biso   1.000  O 
  O7       1.0000 0.66340  0.07194  0.75125  Biso   1.000  O 
  O8       1.0000 0.23062  0.68225  0.87742  Biso   1.000  O 
  O9       1.0000 0.83308  0.42766  0.58474  Biso   1.000  O 
  O10      1.0000 0.66462  0.92830  0.74882  Biso   1.000  O 
  O11      1.0000 0.73066  0.18223  0.87743  Biso   1.000  O 
  O12      1.0000 0.33362  0.07229  0.25081  Biso   1.000  O 
  O13      1.0000 0.33551  0.92694  0.24775  Biso   1.000  O 
  O14      1.0000 0.83350  0.57228  0.25099  Biso   1.000  O 
  O15      1.0000 0.88571  0.49993  0.86490  Biso   1.000  O 
  O16      1.0000 0.66002  0.92684  0.41936  Biso   1.000  O 
  O17      1.0000 0.15993  0.42685  0.41951  Biso   1.000  O 
  O18      1.0000 0.83338  0.57247  0.58560  Biso   1.000  O 
  O19      1.0000 0.83545  0.42694  0.24789  Biso   1.000  O 
  O20      1.0000 0.61045  0.99995  0.13676  Biso   1.000  O 
  O21      1.0000 0.33318  0.92767  0.58458  Biso   1.000  O 
  O22      1.0000 0.73188  0.81827  0.87562  Biso   1.000  O 
  O23      1.0000 0.11034  0.49996  0.13693  Biso   1.000  O 
  O24      1.0000 0.33356  0.07248  0.58538  Biso   1.000  O 
