data_image0
_cell_length_a       10.2881
_cell_length_b       19.2203
_cell_length_c       6.75883
_cell_angle_alpha    90.0678
_cell_angle_beta     48.503
_cell_angle_gamma    90.0434

_symmetry_space_group_name_H-M    "P 1"
_symmetry_int_tables_number       1

loop_
  _symmetry_equiv_pos_as_xyz
  'x, y, z'

loop_
  _atom_site_label
  _atom_site_occupancy
  _atom_site_fract_x
  _atom_site_fract_y
  _atom_site_fract_z
  _atom_site_thermal_displace_type
  _atom_site_B_iso_or_equiv
  _atom_site_type_symbol
  Al1      1.0000 0.49754  0.99987  0.50130  Biso   1.000  Al
  Al2      1.0000 0.99742  0.49988  0.50143  Biso   1.000  Al
  Al3      1.0000 0.99554  0.49993  0.00373  Biso   1.000  Al
  Al4      1.0000 0.49561  0.99993  0.00366  Biso   1.000  Al
  C1       1.0000 0.26505  0.21351  0.66496  Biso   1.000  C 
  C2       1.0000 0.77383  0.67737  0.47748  Biso   1.000  C 
  C3       1.0000 0.82175  0.60215  0.43004  Biso   1.000  C 
  C4       1.0000 0.25381  0.78683  0.31624  Biso   1.000  C 
  C5       1.0000 0.77421  0.32240  0.47627  Biso   1.000  C 
  C6       1.0000 0.27424  0.82241  0.47630  Biso   1.000  C 
  C7       1.0000 0.73577  0.78545  0.69569  Biso   1.000  C 
  C8       1.0000 0.75382  0.28683  0.31618  Biso   1.000  C 
  C9       1.0000 0.82195  0.39764  0.42880  Biso   1.000  C 
  C10      1.0000 0.32205  0.89764  0.42873  Biso   1.000  C 
  C11      1.0000 0.17303  0.60353  0.57242  Biso   1.000  C 
  C12      1.0000 0.76496  0.71350  0.66507  Biso   1.000  C 
  C13      1.0000 0.72461  0.21581  0.34638  Biso   1.000  C 
  C14      1.0000 0.26416  0.78664  0.66537  Biso   1.000  C 
  C15      1.0000 0.21487  0.67836  0.53470  Biso   1.000  C 
  C16      1.0000 0.71459  0.82141  0.53481  Biso   1.000  C 
  C17      1.0000 0.27392  0.17739  0.47737  Biso   1.000  C 
  C18      1.0000 0.76411  0.28665  0.66535  Biso   1.000  C 
  C19      1.0000 0.67285  0.89625  0.57205  Biso   1.000  C 
  C20      1.0000 0.21454  0.32141  0.53484  Biso   1.000  C 
  C21      1.0000 0.22308  0.28359  0.34805  Biso   1.000  C 
  C22      1.0000 0.72309  0.78359  0.34805  Biso   1.000  C 
  C23      1.0000 0.22456  0.71582  0.34648  Biso   1.000  C 
  C24      1.0000 0.67314  0.10353  0.57229  Biso   1.000  C 
  C25      1.0000 0.23578  0.28546  0.69564  Biso   1.000  C 
  C26      1.0000 0.23489  0.71470  0.69653  Biso   1.000  C 
  C27      1.0000 0.32188  0.10216  0.42990  Biso   1.000  C 
  C28      1.0000 0.17277  0.39625  0.57210  Biso   1.000  C 
  C29      1.0000 0.75227  0.71258  0.31837  Biso   1.000  C 
  C30      1.0000 0.73488  0.21471  0.69649  Biso   1.000  C 
  C31      1.0000 0.71491  0.17836  0.53460  Biso   1.000  C 
  C32      1.0000 0.25233  0.21258  0.31829  Biso   1.000  C 
  H1       1.0000 0.73097  0.00036  0.01776  Biso   1.000  H 
  H2       1.0000 0.26077  0.18368  0.17164  Biso   1.000  H 
  H3       1.0000 0.70889  0.18809  0.22323  Biso   1.000  H 
  H4       1.0000 0.20880  0.68811  0.22339  Biso   1.000  H 
  H5       1.0000 0.26754  0.00070  0.98308  Biso   1.000  H 
  H6       1.0000 0.76745  0.50069  0.98319  Biso   1.000  H 
  H7       1.0000 0.78357  0.68630  0.78583  Biso   1.000  H 
  H8       1.0000 0.23090  0.50037  0.01786  Biso   1.000  H 
  H9       1.0000 0.20162  0.36792  0.87499  Biso   1.000  H 
  H10      1.0000 0.76070  0.68367  0.17174  Biso   1.000  H 
  H11      1.0000 0.78178  0.31416  0.78689  Biso   1.000  H 
  H12      1.0000 0.76315  0.31543  0.16839  Biso   1.000  H 
  H13      1.0000 0.28366  0.18632  0.78572  Biso   1.000  H 
  H14      1.0000 0.70649  0.81106  0.22568  Biso   1.000  H 
  H15      1.0000 0.26319  0.81544  0.16843  Biso   1.000  H 
  H16      1.0000 0.69971  0.13253  0.87718  Biso   1.000  H 
  H17      1.0000 0.28188  0.81415  0.78686  Biso   1.000  H 
  H18      1.0000 0.19972  0.63253  0.87723  Biso   1.000  H 
  H19      1.0000 0.20643  0.31106  0.22570  Biso   1.000  H 
  H20      1.0000 0.70164  0.86791  0.87502  Biso   1.000  H 
  O1       1.0000 0.22964  0.31821  0.87823  Biso   1.000  O 
  O2       1.0000 0.65275  0.07296  0.42779  Biso   1.000  O 
  O3       1.0000 0.39323  0.99997  0.85701  Biso   1.000  O 
  O4       1.0000 0.15535  0.57226  0.75948  Biso   1.000  O 
  O5       1.0000 0.15605  0.42790  0.75796  Biso   1.000  O 
  O6       1.0000 0.15261  0.57297  0.42794  Biso   1.000  O 
  O7       1.0000 0.65547  0.07225  0.75936  Biso   1.000  O 
  O8       1.0000 0.22756  0.68230  0.88057  Biso   1.000  O 
  O9       1.0000 0.84289  0.42749  0.57451  Biso   1.000  O 
  O10      1.0000 0.65610  0.92790  0.75793  Biso   1.000  O 
  O11      1.0000 0.72752  0.18230  0.88055  Biso   1.000  O 
  O12      1.0000 0.34435  0.07272  0.23949  Biso   1.000  O 
  O13      1.0000 0.34513  0.92683  0.23768  Biso   1.000  O 
  O14      1.0000 0.84423  0.57271  0.23961  Biso   1.000  O 
  O15      1.0000 0.89314  0.49996  0.85712  Biso   1.000  O 
  O16      1.0000 0.65165  0.92645  0.42817  Biso   1.000  O 
  O17      1.0000 0.15154  0.42646  0.42825  Biso   1.000  O 
  O18      1.0000 0.84351  0.57257  0.57498  Biso   1.000  O 
  O19      1.0000 0.84506  0.42682  0.23773  Biso   1.000  O 
  O20      1.0000 0.60530  0.99991  0.14219  Biso   1.000  O 
  O21      1.0000 0.34302  0.92750  0.57440  Biso   1.000  O 
  O22      1.0000 0.72964  0.81820  0.87826  Biso   1.000  O 
  O23      1.0000 0.10522  0.49991  0.14226  Biso   1.000  O 
  O24      1.0000 0.34366  0.07259  0.57482  Biso   1.000  O 
