data_image0
_cell_length_a       16.1959
_cell_length_b       15.6584
_cell_length_c       6.80835
_cell_angle_alpha    89.9989
_cell_angle_beta     64.7297
_cell_angle_gamma    89.9991

_symmetry_space_group_name_H-M    "P 1"
_symmetry_int_tables_number       1

loop_
  _symmetry_equiv_pos_as_xyz
  'x, y, z'

loop_
  _atom_site_label
  _atom_site_occupancy
  _atom_site_fract_x
  _atom_site_fract_y
  _atom_site_fract_z
  _atom_site_thermal_displace_type
  _atom_site_B_iso_or_equiv
  _atom_site_type_symbol
  Al1      1.0000 0.50016  0.99994  0.49861  Biso   1.000  Al
  Al2      1.0000 0.00016  0.49995  0.49863  Biso   1.000  Al
  Al3      1.0000 0.99762  0.49992  0.00160  Biso   1.000  Al
  Al4      1.0000 0.49763  0.99991  0.00158  Biso   1.000  Al
  C1       1.0000 0.18305  0.31495  0.56618  Biso   1.000  C 
  C2       1.0000 0.22259  0.28485  0.35056  Biso   1.000  C 
  C3       1.0000 0.72258  0.78483  0.35053  Biso   1.000  C 
  C4       1.0000 0.22252  0.71507  0.35066  Biso   1.000  C 
  C5       1.0000 0.61351  0.11582  0.63136  Biso   1.000  C 
  C6       1.0000 0.21228  0.27799  0.71694  Biso   1.000  C 
  C7       1.0000 0.38750  0.11487  0.36447  Biso   1.000  C 
  C8       1.0000 0.77891  0.28641  0.64911  Biso   1.000  C 
  C9       1.0000 0.11355  0.38406  0.63133  Biso   1.000  C 
  C10      1.0000 0.78839  0.72109  0.28439  Biso   1.000  C 
  C11      1.0000 0.71217  0.22194  0.71707  Biso   1.000  C 
  C12      1.0000 0.68297  0.18496  0.56627  Biso   1.000  C 
  C13      1.0000 0.28841  0.22112  0.28440  Biso   1.000  C 
  C14      1.0000 0.21219  0.72192  0.71705  Biso   1.000  C 
  C15      1.0000 0.31713  0.18484  0.43435  Biso   1.000  C 
  C16      1.0000 0.61356  0.88407  0.63126  Biso   1.000  C 
  C17      1.0000 0.18298  0.68495  0.56626  Biso   1.000  C 
  C18      1.0000 0.27902  0.21351  0.64895  Biso   1.000  C 
  C19      1.0000 0.81714  0.68484  0.43434  Biso   1.000  C 
  C20      1.0000 0.88751  0.61488  0.36447  Biso   1.000  C 
  C21      1.0000 0.68306  0.81496  0.56612  Biso   1.000  C 
  C22      1.0000 0.81706  0.31507  0.43448  Biso   1.000  C 
  C23      1.0000 0.31706  0.81507  0.43447  Biso   1.000  C 
  C24      1.0000 0.71232  0.77803  0.71688  Biso   1.000  C 
  C25      1.0000 0.28833  0.77880  0.28452  Biso   1.000  C 
  C26      1.0000 0.88747  0.38501  0.36456  Biso   1.000  C 
  C27      1.0000 0.38747  0.88500  0.36453  Biso   1.000  C 
  C28      1.0000 0.11352  0.61582  0.63136  Biso   1.000  C 
  C29      1.0000 0.77905  0.71355  0.64891  Biso   1.000  C 
  C30      1.0000 0.72252  0.21506  0.35066  Biso   1.000  C 
  C31      1.0000 0.27893  0.78640  0.64908  Biso   1.000  C 
  C32      1.0000 0.78833  0.27880  0.28452  Biso   1.000  C 
  H1       1.0000 0.30051  0.18597  0.76654  Biso   1.000  H 
  H2       1.0000 0.70028  0.81214  0.23431  Biso   1.000  H 
  H3       1.0000 0.31843  0.80117  0.11717  Biso   1.000  H 
  H4       1.0000 0.63230  0.15154  0.94298  Biso   1.000  H 
  H5       1.0000 0.20032  0.31218  0.23433  Biso   1.000  H 
  H6       1.0000 0.13234  0.65152  0.94295  Biso   1.000  H 
  H7       1.0000 0.63248  0.84845  0.94276  Biso   1.000  H 
  H8       1.0000 0.81844  0.30116  0.11717  Biso   1.000  H 
  H9       1.0000 0.30042  0.81393  0.76668  Biso   1.000  H 
  H10      1.0000 0.80039  0.31395  0.76672  Biso   1.000  H 
  H11      1.0000 0.20025  0.68774  0.23440  Biso   1.000  H 
  H12      1.0000 0.13243  0.34838  0.94286  Biso   1.000  H 
  H13      1.0000 0.12138  0.49994  0.12722  Biso   1.000  H 
  H14      1.0000 0.80057  0.68603  0.76648  Biso   1.000  H 
  H15      1.0000 0.87947  0.49981  0.86904  Biso   1.000  H 
  H16      1.0000 0.37946  0.99980  0.86901  Biso   1.000  H 
  H17      1.0000 0.70026  0.18773  0.23440  Biso   1.000  H 
  H18      1.0000 0.31850  0.19875  0.11704  Biso   1.000  H 
  H19      1.0000 0.62138  0.99996  0.12720  Biso   1.000  H 
  H20      1.0000 0.81846  0.69870  0.11706  Biso   1.000  H 
  O1       1.0000 0.91448  0.58717  0.17015  Biso   1.000  O 
  O2       1.0000 0.94562  0.49993  0.80377  Biso   1.000  O 
  O3       1.0000 0.58714  0.91317  0.49335  Biso   1.000  O 
  O4       1.0000 0.08713  0.41316  0.49341  Biso   1.000  O 
  O5       1.0000 0.41478  0.91265  0.50319  Biso   1.000  O 
  O6       1.0000 0.91448  0.41266  0.17016  Biso   1.000  O 
  O7       1.0000 0.55521  0.99993  0.19165  Biso   1.000  O 
  O8       1.0000 0.41449  0.91265  0.17013  Biso   1.000  O 
  O9       1.0000 0.67779  0.80242  0.92721  Biso   1.000  O 
  O10      1.0000 0.91484  0.58727  0.50313  Biso   1.000  O 
  O11      1.0000 0.41446  0.08716  0.17015  Biso   1.000  O 
  O12      1.0000 0.17762  0.69757  0.92742  Biso   1.000  O 
  O13      1.0000 0.58416  0.91206  0.82949  Biso   1.000  O 
  O14      1.0000 0.91478  0.41265  0.50322  Biso   1.000  O 
  O15      1.0000 0.58410  0.08783  0.82957  Biso   1.000  O 
  O16      1.0000 0.08713  0.58670  0.49340  Biso   1.000  O 
  O17      1.0000 0.08414  0.41204  0.82956  Biso   1.000  O 
  O18      1.0000 0.08412  0.58782  0.82957  Biso   1.000  O 
  O19      1.0000 0.44562  0.99993  0.80375  Biso   1.000  O 
  O20      1.0000 0.58713  0.08670  0.49340  Biso   1.000  O 
  O21      1.0000 0.17773  0.30234  0.92730  Biso   1.000  O 
  O22      1.0000 0.05522  0.49993  0.19168  Biso   1.000  O 
  O23      1.0000 0.67758  0.19759  0.92745  Biso   1.000  O 
  O24      1.0000 0.41483  0.08726  0.50312  Biso   1.000  O 
