data_image0
_cell_length_a       13.6222
_cell_length_b       17.5748
_cell_length_c       6.73339
_cell_angle_alpha    90.0114
_cell_angle_beta     60.2111
_cell_angle_gamma    90.0041

_symmetry_space_group_name_H-M    "P 1"
_symmetry_int_tables_number       1

loop_
  _symmetry_equiv_pos_as_xyz
  'x, y, z'

loop_
  _atom_site_label
  _atom_site_occupancy
  _atom_site_fract_x
  _atom_site_fract_y
  _atom_site_fract_z
  _atom_site_thermal_displace_type
  _atom_site_B_iso_or_equiv
  _atom_site_type_symbol
  Al1      1.0000 0.50100  0.99990  0.49761  Biso   1.000  Al
  Al2      1.0000 0.00099  0.49990  0.49762  Biso   1.000  Al
  Al3      1.0000 0.99737  0.49990  0.00136  Biso   1.000  Al
  Al4      1.0000 0.49738  0.99990  0.00135  Biso   1.000  Al
  C1       1.0000 0.27061  0.21098  0.65917  Biso   1.000  C 
  C2       1.0000 0.80756  0.67989  0.44300  Biso   1.000  C 
  C3       1.0000 0.87204  0.60689  0.37886  Biso   1.000  C 
  C4       1.0000 0.28663  0.78218  0.28340  Biso   1.000  C 
  C5       1.0000 0.80745  0.31999  0.44306  Biso   1.000  C 
  C6       1.0000 0.30745  0.81998  0.44306  Biso   1.000  C 
  C7       1.0000 0.71212  0.78032  0.71987  Biso   1.000  C 
  C8       1.0000 0.78662  0.28218  0.28340  Biso   1.000  C 
  C9       1.0000 0.87202  0.39294  0.37871  Biso   1.000  C 
  C10      1.0000 0.37203  0.89294  0.37872  Biso   1.000  C 
  C11      1.0000 0.12902  0.60815  0.61667  Biso   1.000  C 
  C12      1.0000 0.77063  0.71098  0.65917  Biso   1.000  C 
  C13      1.0000 0.72937  0.21351  0.34218  Biso   1.000  C 
  C14      1.0000 0.27041  0.78899  0.65937  Biso   1.000  C 
  C15      1.0000 0.19129  0.68087  0.55898  Biso   1.000  C 
  C16      1.0000 0.69140  0.81900  0.55878  Biso   1.000  C 
  C17      1.0000 0.30755  0.17988  0.44300  Biso   1.000  C 
  C18      1.0000 0.77040  0.28899  0.65937  Biso   1.000  C 
  C19      1.0000 0.62905  0.89169  0.61652  Biso   1.000  C 
  C20      1.0000 0.19140  0.31900  0.55879  Biso   1.000  C 
  C21      1.0000 0.22939  0.28627  0.34207  Biso   1.000  C 
  C22      1.0000 0.72938  0.78627  0.34208  Biso   1.000  C 
  C23      1.0000 0.22937  0.71352  0.34218  Biso   1.000  C 
  C24      1.0000 0.62902  0.10815  0.61667  Biso   1.000  C 
  C25      1.0000 0.21211  0.28031  0.71987  Biso   1.000  C 
  C26      1.0000 0.21188  0.71966  0.72012  Biso   1.000  C 
  C27      1.0000 0.37203  0.10688  0.37888  Biso   1.000  C 
  C28      1.0000 0.12904  0.39168  0.61653  Biso   1.000  C 
  C29      1.0000 0.78666  0.71760  0.28336  Biso   1.000  C 
  C30      1.0000 0.71188  0.21966  0.72013  Biso   1.000  C 
  C31      1.0000 0.69129  0.18087  0.55899  Biso   1.000  C 
  C32      1.0000 0.28667  0.21760  0.28335  Biso   1.000  C 
  H1       1.0000 0.65174  0.00012  0.09637  Biso   1.000  H 
  H2       1.0000 0.31632  0.19254  0.11531  Biso   1.000  H 
  H3       1.0000 0.71234  0.18413  0.22048  Biso   1.000  H 
  H4       1.0000 0.21234  0.68413  0.22047  Biso   1.000  H 
  H5       1.0000 0.34996  0.00023  0.89611  Biso   1.000  H 
  H6       1.0000 0.84995  0.50022  0.89612  Biso   1.000  H 
  H7       1.0000 0.78715  0.68167  0.78199  Biso   1.000  H 
  H8       1.0000 0.15174  0.50010  0.09638  Biso   1.000  H 
  H9       1.0000 0.13872  0.35712  0.94009  Biso   1.000  H 
  H10      1.0000 0.81631  0.69254  0.11533  Biso   1.000  H 
  H11      1.0000 0.78684  0.31838  0.78224  Biso   1.000  H 
  H12      1.0000 0.81632  0.30719  0.11530  Biso   1.000  H 
  H13      1.0000 0.28713  0.18166  0.78200  Biso   1.000  H 
  H14      1.0000 0.71229  0.81560  0.22041  Biso   1.000  H 
  H15      1.0000 0.31633  0.80719  0.11529  Biso   1.000  H 
  H16      1.0000 0.63843  0.14293  0.94045  Biso   1.000  H 
  H17      1.0000 0.28684  0.81838  0.78225  Biso   1.000  H 
  H18      1.0000 0.13844  0.64293  0.94043  Biso   1.000  H 
  H19      1.0000 0.21231  0.31561  0.22039  Biso   1.000  H 
  H20      1.0000 0.63875  0.85714  0.94006  Biso   1.000  H 
  O1       1.0000 0.17694  0.30760  0.93212  Biso   1.000  O 
  O2       1.0000 0.60546  0.07798  0.47417  Biso   1.000  O 
  O3       1.0000 0.43185  0.99992  0.81652  Biso   1.000  O 
  O4       1.0000 0.10161  0.57861  0.81410  Biso   1.000  O 
  O5       1.0000 0.10170  0.42129  0.81388  Biso   1.000  O 
  O6       1.0000 0.10546  0.57798  0.47416  Biso   1.000  O 
  O7       1.0000 0.60160  0.07862  0.81412  Biso   1.000  O 
  O8       1.0000 0.17657  0.69248  0.93251  Biso   1.000  O 
  O9       1.0000 0.89819  0.42157  0.52010  Biso   1.000  O 
  O10      1.0000 0.60171  0.92130  0.81387  Biso   1.000  O 
  O11      1.0000 0.67657  0.19249  0.93251  Biso   1.000  O 
  O12      1.0000 0.39715  0.07833  0.18489  Biso   1.000  O 
  O13      1.0000 0.39729  0.92138  0.18456  Biso   1.000  O 
  O14      1.0000 0.89716  0.57834  0.18488  Biso   1.000  O 
  O15      1.0000 0.93185  0.49993  0.81653  Biso   1.000  O 
  O16      1.0000 0.60537  0.92178  0.47414  Biso   1.000  O 
  O17      1.0000 0.10537  0.42178  0.47414  Biso   1.000  O 
  O18      1.0000 0.89828  0.57834  0.52021  Biso   1.000  O 
  O19      1.0000 0.89728  0.42139  0.18456  Biso   1.000  O 
  O20      1.0000 0.56983  0.99992  0.17695  Biso   1.000  O 
  O21      1.0000 0.39819  0.92157  0.52011  Biso   1.000  O 
  O22      1.0000 0.67696  0.80761  0.93210  Biso   1.000  O 
  O23      1.0000 0.06983  0.49992  0.17695  Biso   1.000  O 
  O24      1.0000 0.39828  0.07834  0.52023  Biso   1.000  O 
