data_image0
_cell_length_a       21.3653
_cell_length_b       6.6721
_cell_length_c       14.1549
_cell_angle_alpha    89.9293
_cell_angle_beta     90.0054
_cell_angle_gamma    89.9402

_symmetry_space_group_name_H-M    "P 1"
_symmetry_int_tables_number       1

loop_
  _symmetry_equiv_pos_as_xyz
  'x, y, z'

loop_
  _atom_site_label
  _atom_site_occupancy
  _atom_site_fract_x
  _atom_site_fract_y
  _atom_site_fract_z
  _atom_site_thermal_displace_type
  _atom_site_B_iso_or_equiv
  _atom_site_type_symbol
  Al1      1.0000 0.49283  0.75730  0.99952  Biso   1.000  Al
  Al2      1.0000 0.50241  0.25736  0.99953  Biso   1.000  Al
  Al3      1.0000 0.00246  0.25826  0.49938  Biso   1.000  Al
  Al4      1.0000 0.99286  0.75813  0.49945  Biso   1.000  Al
  C1       1.0000 0.34065  0.22716  0.21357  Biso   1.000  C 
  C2       1.0000 0.75326  0.91289  0.27093  Biso   1.000  C 
  C3       1.0000 0.08477  0.51607  0.60771  Biso   1.000  C 
  C4       1.0000 0.14257  0.54100  0.66581  Biso   1.000  C 
  C5       1.0000 0.15423  0.72855  0.71003  Biso   1.000  C 
  C6       1.0000 0.20780  0.75722  0.76221  Biso   1.000  C 
  C7       1.0000 0.24173  0.41345  0.72552  Biso   1.000  C 
  C8       1.0000 0.18546  0.38635  0.67424  Biso   1.000  C 
  C9       1.0000 0.91067  0.49999  0.61118  Biso   1.000  C 
  C10      1.0000 0.85285  0.47548  0.66942  Biso   1.000  C 
  C11      1.0000 0.80962  0.88675  0.32224  Biso   1.000  C 
  C12      1.0000 0.28695  0.25609  0.26531  Biso   1.000  C 
  C13      1.0000 0.75341  0.60285  0.72852  Biso   1.000  C 
  C14      1.0000 0.80970  0.62967  0.67717  Biso   1.000  C 
  C15      1.0000 0.78751  0.25953  0.76622  Biso   1.000  C 
  C16      1.0000 0.85260  0.04121  0.32971  Biso   1.000  C 
  C17      1.0000 0.78700  0.25605  0.23254  Biso   1.000  C 
  C18      1.0000 0.84072  0.22771  0.28437  Biso   1.000  C 
  C19      1.0000 0.91048  0.01721  0.38794  Biso   1.000  C 
  C20      1.0000 0.68557  0.38650  0.82527  Biso   1.000  C 
  C21      1.0000 0.30953  0.88580  0.17699  Biso   1.000  C 
  C22      1.0000 0.84120  0.28856  0.71446  Biso   1.000  C 
  C23      1.0000 0.41068  0.49965  0.88801  Biso   1.000  C 
  C24      1.0000 0.25315  0.91263  0.22815  Biso   1.000  C 
  C25      1.0000 0.65428  0.72855  0.78892  Biso   1.000  C 
  C26      1.0000 0.70789  0.75737  0.73683  Biso   1.000  C 
  C27      1.0000 0.28726  0.25897  0.73384  Biso   1.000  C 
  C28      1.0000 0.35252  0.04012  0.16894  Biso   1.000  C 
  C29      1.0000 0.41040  0.01583  0.11080  Biso   1.000  C 
  C30      1.0000 0.08452  0.99947  0.39090  Biso   1.000  C 
  C31      1.0000 0.15411  0.78680  0.28872  Biso   1.000  C 
  C32      1.0000 0.20774  0.75801  0.23666  Biso   1.000  C 
  C33      1.0000 0.24145  0.10179  0.27341  Biso   1.000  C 
  C34      1.0000 0.18510  0.12908  0.32447  Biso   1.000  C 
  C35      1.0000 0.68514  0.12822  0.17392  Biso   1.000  C 
  C36      1.0000 0.74153  0.10157  0.22500  Biso   1.000  C 
  C37      1.0000 0.14232  0.97445  0.33282  Biso   1.000  C 
  C38      1.0000 0.34094  0.28797  0.78559  Biso   1.000  C 
  C39      1.0000 0.35272  0.47510  0.83012  Biso   1.000  C 
  C40      1.0000 0.74189  0.41376  0.77410  Biso   1.000  C 
  C41      1.0000 0.65424  0.78619  0.21083  Biso   1.000  C 
  C42      1.0000 0.25330  0.60260  0.77081  Biso   1.000  C 
  C43      1.0000 0.64260  0.54096  0.83331  Biso   1.000  C 
  C44      1.0000 0.30962  0.62941  0.82207  Biso   1.000  C 
  C45      1.0000 0.64235  0.97347  0.16619  Biso   1.000  C 
  C46      1.0000 0.58448  0.99813  0.10820  Biso   1.000  C 
  C47      1.0000 0.58475  0.51567  0.89130  Biso   1.000  C 
  C48      1.0000 0.70791  0.75802  0.26292  Biso   1.000  C 
  H1       1.0000 0.37536  0.16863  0.79326  Biso   1.000  H 
  H2       1.0000 0.21625  0.89992  0.79755  Biso   1.000  H 
  H3       1.0000 0.61982  0.84772  0.79722  Biso   1.000  H 
  H4       1.0000 0.21630  0.61530  0.20136  Biso   1.000  H 
  H5       1.0000 0.37501  0.34647  0.20600  Biso   1.000  H 
  H6       1.0000 0.17593  0.24308  0.64004  Biso   1.000  H 
  H7       1.0000 0.47826  0.01409  0.87930  Biso   1.000  H 
  H8       1.0000 0.31901  0.77234  0.85667  Biso   1.000  H 
  H9       1.0000 0.27880  0.11634  0.69845  Biso   1.000  H 
  H10      1.0000 0.11982  0.84780  0.70150  Biso   1.000  H 
  H11      1.0000 0.77911  0.11700  0.80191  Biso   1.000  H 
  H12      1.0000 0.61990  0.66682  0.20274  Biso   1.000  H 
  H13      1.0000 0.17543  0.27237  0.35861  Biso   1.000  H 
  H14      1.0000 0.81914  0.74422  0.35734  Biso   1.000  H 
  H15      1.0000 0.47781  0.50082  0.11958  Biso   1.000  H 
  H16      1.0000 0.77845  0.39817  0.19652  Biso   1.000  H 
  H17      1.0000 0.81903  0.77253  0.64229  Biso   1.000  H 
  H18      1.0000 0.31899  0.74288  0.14236  Biso   1.000  H 
  H19      1.0000 0.87569  0.16936  0.70715  Biso   1.000  H 
  H20      1.0000 0.71631  0.90003  0.70126  Biso   1.000  H 
  H21      1.0000 0.67602  0.24328  0.85967  Biso   1.000  H 
  H22      1.0000 0.11975  0.66762  0.29725  Biso   1.000  H 
  H23      1.0000 0.27843  0.39858  0.30081  Biso   1.000  H 
  H24      1.0000 0.71654  0.61564  0.29866  Biso   1.000  H 
  H25      1.0000 0.97642  0.50174  0.38017  Biso   1.000  H 
  H26      1.0000 0.97710  0.01471  0.61901  Biso   1.000  H 
  H27      1.0000 0.67542  0.27112  0.13927  Biso   1.000  H 
  H28      1.0000 0.87510  0.34707  0.29136  Biso   1.000  H 
  O1       1.0000 0.05551  0.83895  0.41168  Biso   1.000  O 
  O2       1.0000 0.55560  0.83746  0.08740  Biso   1.000  O 
  O3       1.0000 0.56809  0.17415  0.08337  Biso   1.000  O 
  O4       1.0000 0.42645  0.67571  0.91389  Biso   1.000  O 
  O5       1.0000 0.44013  0.33854  0.90771  Biso   1.000  O 
  O6       1.0000 0.06830  0.17544  0.41583  Biso   1.000  O 
  O7       1.0000 0.43934  0.17725  0.09038  Biso   1.000  O 
  O8       1.0000 0.42659  0.83972  0.08538  Biso   1.000  O 
  O9       1.0000 0.56890  0.33968  0.91681  Biso   1.000  O 
  O10      1.0000 0.94000  0.33882  0.59131  Biso   1.000  O 
  O11      1.0000 0.55530  0.67588  0.91135  Biso   1.000  O 
  O12      1.0000 0.49618  0.50696  0.05711  Biso   1.000  O 
  O13      1.0000 0.92645  0.67612  0.58516  Biso   1.000  O 
  O14      1.0000 0.06885  0.34025  0.58225  Biso   1.000  O 
  O15      1.0000 0.99606  0.50808  0.44176  Biso   1.000  O 
  O16      1.0000 0.99622  0.00830  0.55706  Biso   1.000  O 
  O17      1.0000 0.49638  0.00766  0.94194  Biso   1.000  O 
  O18      1.0000 0.93945  0.17863  0.40817  Biso   1.000  O 
  O19      1.0000 0.92661  0.84110  0.41362  Biso   1.000  O 
  O20      1.0000 0.05540  0.67645  0.58750  Biso   1.000  O 
