data_image0
_cell_length_a       20.7372
_cell_length_b       6.67614
_cell_length_c       15.1888
_cell_angle_alpha    89.9579
_cell_angle_beta     90.0072
_cell_angle_gamma    89.98

_symmetry_space_group_name_H-M    "P 1"
_symmetry_int_tables_number       1

loop_
  _symmetry_equiv_pos_as_xyz
  'x, y, z'

loop_
  _atom_site_label
  _atom_site_occupancy
  _atom_site_fract_x
  _atom_site_fract_y
  _atom_site_fract_z
  _atom_site_thermal_displace_type
  _atom_site_B_iso_or_equiv
  _atom_site_type_symbol
  Al1      1.0000 0.49261  0.75743  0.99945  Biso   1.000  Al
  Al2      1.0000 0.50302  0.25747  0.99943  Biso   1.000  Al
  Al3      1.0000 0.00307  0.25791  0.49974  Biso   1.000  Al
  Al4      1.0000 0.99264  0.75785  0.49969  Biso   1.000  Al
  C1       1.0000 0.34151  0.22707  0.20688  Biso   1.000  C 
  C2       1.0000 0.75238  0.91326  0.27020  Biso   1.000  C 
  C3       1.0000 0.08645  0.51617  0.60263  Biso   1.000  C 
  C4       1.0000 0.14365  0.54134  0.66140  Biso   1.000  C 
  C5       1.0000 0.15358  0.72861  0.70388  Biso   1.000  C 
  C6       1.0000 0.20614  0.75699  0.75772  Biso   1.000  C 
  C7       1.0000 0.24280  0.41382  0.72631  Biso   1.000  C 
  C8       1.0000 0.18738  0.38690  0.67312  Biso   1.000  C 
  C9       1.0000 0.90922  0.49970  0.60591  Biso   1.000  C 
  C10      1.0000 0.85196  0.47509  0.66472  Biso   1.000  C 
  C11      1.0000 0.80785  0.88687  0.32348  Biso   1.000  C 
  C12      1.0000 0.28888  0.25588  0.26042  Biso   1.000  C 
  C13      1.0000 0.75238  0.60228  0.72896  Biso   1.000  C 
  C14      1.0000 0.80786  0.62890  0.67575  Biso   1.000  C 
  C15      1.0000 0.78932  0.25981  0.76137  Biso   1.000  C 
  C16      1.0000 0.85188  0.04082  0.33452  Biso   1.000  C 
  C17      1.0000 0.78918  0.25562  0.23757  Biso   1.000  C 
  C18      1.0000 0.84190  0.22706  0.29105  Biso   1.000  C 
  C19      1.0000 0.90912  0.01660  0.39348  Biso   1.000  C 
  C20      1.0000 0.68737  0.38687  0.82612  Biso   1.000  C 
  C21      1.0000 0.30765  0.88621  0.17560  Biso   1.000  C 
  C22      1.0000 0.84207  0.28864  0.70802  Biso   1.000  C 
  C23      1.0000 0.40926  0.49965  0.89327  Biso   1.000  C 
  C24      1.0000 0.25222  0.91288  0.22892  Biso   1.000  C 
  C25      1.0000 0.65336  0.72820  0.79473  Biso   1.000  C 
  C26      1.0000 0.70592  0.75660  0.74089  Biso   1.000  C 
  C27      1.0000 0.28922  0.25954  0.73826  Biso   1.000  C 
  C28      1.0000 0.35157  0.04029  0.16403  Biso   1.000  C 
  C29      1.0000 0.40888  0.01586  0.10525  Biso   1.000  C 
  C30      1.0000 0.08642  0.99927  0.39677  Biso   1.000  C 
  C31      1.0000 0.15340  0.78693  0.29528  Biso   1.000  C 
  C32      1.0000 0.20588  0.75848  0.24129  Biso   1.000  C 
  C33      1.0000 0.24253  0.10157  0.27255  Biso   1.000  C 
  C34      1.0000 0.18720  0.12859  0.32591  Biso   1.000  C 
  C35      1.0000 0.68720  0.12826  0.17292  Biso   1.000  C 
  C36      1.0000 0.74267  0.10154  0.22610  Biso   1.000  C 
  C37      1.0000 0.14351  0.97419  0.33781  Biso   1.000  C 
  C38      1.0000 0.34194  0.28835  0.79164  Biso   1.000  C 
  C39      1.0000 0.35195  0.47504  0.83455  Biso   1.000  C 
  C40      1.0000 0.74277  0.41382  0.77290  Biso   1.000  C 
  C41      1.0000 0.65333  0.78705  0.20461  Biso   1.000  C 
  C42      1.0000 0.25249  0.60246  0.76996  Biso   1.000  C 
  C43      1.0000 0.64354  0.54113  0.83756  Biso   1.000  C 
  C44      1.0000 0.30795  0.62905  0.82321  Biso   1.000  C 
  C45      1.0000 0.64340  0.97392  0.16164  Biso   1.000  C 
  C46      1.0000 0.58626  0.99871  0.10271  Biso   1.000  C 
  C47      1.0000 0.58641  0.51591  0.89647  Biso   1.000  C 
  C48      1.0000 0.70595  0.75889  0.25842  Biso   1.000  C 
  H1       1.0000 0.37700  0.16915  0.80173  Biso   1.000  H 
  H2       1.0000 0.21311  0.89939  0.79166  Biso   1.000  H 
  H3       1.0000 0.61831  0.84723  0.80559  Biso   1.000  H 
  H4       1.0000 0.21278  0.61607  0.20733  Biso   1.000  H 
  H5       1.0000 0.37647  0.34637  0.19661  Biso   1.000  H 
  H6       1.0000 0.17917  0.24395  0.64019  Biso   1.000  H 
  H7       1.0000 0.47581  0.01492  0.88857  Biso   1.000  H 
  H8       1.0000 0.31588  0.77168  0.85655  Biso   1.000  H 
  H9       1.0000 0.28223  0.11719  0.70430  Biso   1.000  H 
  H10      1.0000 0.11861  0.84778  0.69278  Biso   1.000  H 
  H11      1.0000 0.78243  0.11763  0.79561  Biso   1.000  H 
  H12      1.0000 0.61829  0.66795  0.19393  Biso   1.000  H 
  H13      1.0000 0.17905  0.27156  0.35888  Biso   1.000  H 
  H14      1.0000 0.81574  0.74445  0.35710  Biso   1.000  H 
  H15      1.0000 0.47553  0.50000  0.11022  Biso   1.000  H 
  H16      1.0000 0.78228  0.39764  0.20321  Biso   1.000  H 
  H17      1.0000 0.81572  0.77140  0.64219  Biso   1.000  H 
  H18      1.0000 0.31560  0.74339  0.14239  Biso   1.000  H 
  H19      1.0000 0.87724  0.16965  0.69829  Biso   1.000  H 
  H20      1.0000 0.71283  0.89890  0.70674  Biso   1.000  H 
  H21      1.0000 0.67927  0.24408  0.85934  Biso   1.000  H 
  H22      1.0000 0.11845  0.66779  0.30645  Biso   1.000  H 
  H23      1.0000 0.28191  0.39830  0.29434  Biso   1.000  H 
  H24      1.0000 0.71292  0.61672  0.29267  Biso   1.000  H 
  H25      1.0000 0.97432  0.50031  0.38960  Biso   1.000  H 
  H26      1.0000 0.97457  0.01534  0.60993  Biso   1.000  H 
  H27      1.0000 0.67903  0.27098  0.13963  Biso   1.000  H 
  H28      1.0000 0.87702  0.34618  0.30075  Biso   1.000  H 
  O1       1.0000 0.05708  0.83895  0.41780  Biso   1.000  O 
  O2       1.0000 0.55699  0.83829  0.08169  Biso   1.000  O 
  O3       1.0000 0.57064  0.17453  0.07783  Biso   1.000  O 
  O4       1.0000 0.42435  0.67552  0.91909  Biso   1.000  O 
  O5       1.0000 0.43905  0.33871  0.91326  Biso   1.000  O 
  O6       1.0000 0.07085  0.17506  0.42163  Biso   1.000  O 
  O7       1.0000 0.43820  0.17717  0.08465  Biso   1.000  O 
  O8       1.0000 0.42447  0.83991  0.08005  Biso   1.000  O 
  O9       1.0000 0.57120  0.34014  0.92183  Biso   1.000  O 
  O10      1.0000 0.93890  0.33867  0.58581  Biso   1.000  O 
  O11      1.0000 0.55673  0.67599  0.91699  Biso   1.000  O 
  O12      1.0000 0.49611  0.50708  0.05307  Biso   1.000  O 
  O13      1.0000 0.92435  0.67563  0.58010  Biso   1.000  O 
  O14      1.0000 0.07116  0.34041  0.57742  Biso   1.000  O 
  O15      1.0000 0.99599  0.50767  0.44601  Biso   1.000  O 
  O16      1.0000 0.99602  0.00801  0.55337  Biso   1.000  O 
  O17      1.0000 0.49622  0.00780  0.94585  Biso   1.000  O 
  O18      1.0000 0.93843  0.17790  0.41401  Biso   1.000  O 
  O19      1.0000 0.92457  0.84067  0.41900  Biso   1.000  O 
  O20      1.0000 0.05677  0.67626  0.58206  Biso   1.000  O 
