data_image0
_cell_length_a       22.8963
_cell_length_b       6.67611
_cell_length_c       10.8038
_cell_angle_alpha    90.0009
_cell_angle_beta     90.0116
_cell_angle_gamma    89.8927

_symmetry_space_group_name_H-M    "P 1"
_symmetry_int_tables_number       1

loop_
  _symmetry_equiv_pos_as_xyz
  'x, y, z'

loop_
  _atom_site_label
  _atom_site_occupancy
  _atom_site_fract_x
  _atom_site_fract_y
  _atom_site_fract_z
  _atom_site_thermal_displace_type
  _atom_site_B_iso_or_equiv
  _atom_site_type_symbol
  Al1      1.0000 0.49356  0.75745  0.99929  Biso   1.000  Al
  Al2      1.0000 0.50126  0.25751  0.99930  Biso   1.000  Al
  Al3      1.0000 0.00122  0.25772  0.49988  Biso   1.000  Al
  Al4      1.0000 0.99353  0.75775  0.50009  Biso   1.000  Al
  C1       1.0000 0.33770  0.22639  0.24571  Biso   1.000  C 
  C2       1.0000 0.75570  0.91332  0.27412  Biso   1.000  C 
  C3       1.0000 0.08123  0.51588  0.63289  Biso   1.000  C 
  C4       1.0000 0.14085  0.54039  0.68664  Biso   1.000  C 
  C5       1.0000 0.15703  0.72721  0.73955  Biso   1.000  C 
  C6       1.0000 0.21279  0.75600  0.78347  Biso   1.000  C 
  C7       1.0000 0.23944  0.41386  0.71906  Biso   1.000  C 
  C8       1.0000 0.18130  0.38655  0.67777  Biso   1.000  C 
  C9       1.0000 0.91350  0.49965  0.63710  Biso   1.000  C 
  C10      1.0000 0.85409  0.47596  0.69214  Biso   1.000  C 
  C11      1.0000 0.81376  0.88697  0.31634  Biso   1.000  C 
  C12      1.0000 0.28202  0.25476  0.29028  Biso   1.000  C 
  C13      1.0000 0.75549  0.60284  0.72536  Biso   1.000  C 
  C14      1.0000 0.81357  0.62978  0.68358  Biso   1.000  C 
  C15      1.0000 0.78218  0.26088  0.78984  Biso   1.000  C 
  C16      1.0000 0.85409  0.04078  0.30746  Biso   1.000  C 
  C17      1.0000 0.78196  0.25488  0.20876  Biso   1.000  C 
  C18      1.0000 0.83768  0.22654  0.25312  Biso   1.000  C 
  C19      1.0000 0.91351  0.01725  0.36268  Biso   1.000  C 
  C20      1.0000 0.68116  0.38670  0.82063  Biso   1.000  C 
  C21      1.0000 0.31367  0.88682  0.18255  Biso   1.000  C 
  C22      1.0000 0.83791  0.28971  0.74587  Biso   1.000  C 
  C23      1.0000 0.41361  0.49931  0.86194  Biso   1.000  C 
  C24      1.0000 0.25565  0.91323  0.22499  Biso   1.000  C 
  C25      1.0000 0.65687  0.72754  0.75933  Biso   1.000  C 
  C26      1.0000 0.71263  0.75650  0.71549  Biso   1.000  C 
  C27      1.0000 0.28234  0.26050  0.70872  Biso   1.000  C 
  C28      1.0000 0.35402  0.04056  0.19133  Biso   1.000  C 
  C29      1.0000 0.41345  0.01690  0.13626  Biso   1.000  C 
  C30      1.0000 0.08141  0.99823  0.36746  Biso   1.000  C 
  C31      1.0000 0.15736  0.78753  0.26006  Biso   1.000  C 
  C32      1.0000 0.21303  0.75936  0.21530  Biso   1.000  C 
  C33      1.0000 0.23930  0.10134  0.27995  Biso   1.000  C 
  C34      1.0000 0.18122  0.12822  0.32183  Biso   1.000  C 
  C35      1.0000 0.68115  0.12819  0.17765  Biso   1.000  C 
  C36      1.0000 0.73927  0.10143  0.21929  Biso   1.000  C 
  C37      1.0000 0.14099  0.97414  0.31329  Biso   1.000  C 
  C38      1.0000 0.33805  0.28935  0.75282  Biso   1.000  C 
  C39      1.0000 0.35423  0.47549  0.80672  Biso   1.000  C 
  C40      1.0000 0.73929  0.41422  0.77947  Biso   1.000  C 
  C41      1.0000 0.65738  0.78746  0.23949  Biso   1.000  C 
  C42      1.0000 0.25563  0.60235  0.77346  Biso   1.000  C 
  C43      1.0000 0.64070  0.54052  0.81201  Biso   1.000  C 
  C44      1.0000 0.31370  0.62923  0.81533  Biso   1.000  C 
  C45      1.0000 0.64095  0.97404  0.18632  Biso   1.000  C 
  C46      1.0000 0.58136  0.99798  0.13211  Biso   1.000  C 
  C47      1.0000 0.58120  0.51587  0.86622  Biso   1.000  C 
  C48      1.0000 0.71311  0.75933  0.28398  Biso   1.000  C 
  H1       1.0000 0.37061  0.17056  0.74754  Biso   1.000  H 
  H2       1.0000 0.22504  0.89806  0.82612  Biso   1.000  H 
  H3       1.0000 0.62421  0.84627  0.75497  Biso   1.000  H 
  H4       1.0000 0.22538  0.61756  0.17227  Biso   1.000  H 
  H5       1.0000 0.37010  0.34530  0.25111  Biso   1.000  H 
  H6       1.0000 0.16827  0.24413  0.63667  Biso   1.000  H 
  H7       1.0000 0.47962  0.01308  0.84140  Biso   1.000  H 
  H8       1.0000 0.32654  0.77131  0.85714  Biso   1.000  H 
  H9       1.0000 0.27013  0.11859  0.66583  Biso   1.000  H 
  H10      1.0000 0.12439  0.84596  0.74405  Biso   1.000  H 
  H11      1.0000 0.76995  0.11900  0.83273  Biso   1.000  H 
  H12      1.0000 0.62495  0.66842  0.24394  Biso   1.000  H 
  H13      1.0000 0.16804  0.27048  0.36314  Biso   1.000  H 
  H14      1.0000 0.82682  0.74516  0.35840  Biso   1.000  H 
  H15      1.0000 0.47914  0.50193  0.15695  Biso   1.000  H 
  H16      1.0000 0.76961  0.39640  0.16537  Biso   1.000  H 
  H17      1.0000 0.82644  0.77196  0.64196  Biso   1.000  H 
  H18      1.0000 0.32663  0.74497  0.14042  Biso   1.000  H 
  H19      1.0000 0.87045  0.17085  0.75121  Biso   1.000  H 
  H20      1.0000 0.72491  0.89872  0.67310  Biso   1.000  H 
  H21      1.0000 0.66812  0.24420  0.86158  Biso   1.000  H 
  H22      1.0000 0.12493  0.66846  0.25578  Biso   1.000  H 
  H23      1.0000 0.26971  0.39629  0.33368  Biso   1.000  H 
  H24      1.0000 0.72556  0.61748  0.32687  Biso   1.000  H 
  H25      1.0000 0.97930  0.50249  0.34221  Biso   1.000  H 
  H26      1.0000 0.97961  0.01354  0.65791  Biso   1.000  H 
  H27      1.0000 0.66790  0.27040  0.13640  Biso   1.000  H 
  H28      1.0000 0.87006  0.34548  0.24756  Biso   1.000  H 
  O1       1.0000 0.05307  0.83745  0.38691  Biso   1.000  O 
  O2       1.0000 0.55301  0.83720  0.11269  Biso   1.000  O 
  O3       1.0000 0.56336  0.17392  0.10686  Biso   1.000  O 
  O4       1.0000 0.43092  0.67538  0.88931  Biso   1.000  O 
  O5       1.0000 0.44235  0.33811  0.88046  Biso   1.000  O 
  O6       1.0000 0.06340  0.17421  0.39255  Biso   1.000  O 
  O7       1.0000 0.44182  0.17828  0.11714  Biso   1.000  O 
  O8       1.0000 0.43121  0.84077  0.10974  Biso   1.000  O 
  O9       1.0000 0.56372  0.33992  0.89242  Biso   1.000  O 
  O10      1.0000 0.94218  0.33837  0.61852  Biso   1.000  O 
  O11      1.0000 0.55238  0.67625  0.88486  Biso   1.000  O 
  O12      1.0000 0.49616  0.50723  0.07495  Biso   1.000  O 
  O13      1.0000 0.93089  0.67572  0.60997  Biso   1.000  O 
  O14      1.0000 0.06368  0.33997  0.60682  Biso   1.000  O 
  O15      1.0000 0.99618  0.50760  0.42435  Biso   1.000  O 
  O16      1.0000 0.99616  0.00801  0.57551  Biso   1.000  O 
  O17      1.0000 0.49623  0.00775  0.92378  Biso   1.000  O 
  O18      1.0000 0.94187  0.17866  0.38183  Biso   1.000  O 
  O19      1.0000 0.93126  0.84117  0.38935  Biso   1.000  O 
  O20      1.0000 0.05235  0.67627  0.61459  Biso   1.000  O 
