data_image0
_cell_length_a       23.1286
_cell_length_b       6.68106
_cell_length_c       10.0861
_cell_angle_alpha    90.0148
_cell_angle_beta     90.0132
_cell_angle_gamma    89.9407

_symmetry_space_group_name_H-M    "P 1"
_symmetry_int_tables_number       1

loop_
  _symmetry_equiv_pos_as_xyz
  'x, y, z'

loop_
  _atom_site_label
  _atom_site_occupancy
  _atom_site_fract_x
  _atom_site_fract_y
  _atom_site_fract_z
  _atom_site_thermal_displace_type
  _atom_site_B_iso_or_equiv
  _atom_site_type_symbol
  Al1      1.0000 0.49376  0.75754  0.99951  Biso   1.000  Al
  Al2      1.0000 0.50108  0.25759  0.99941  Biso   1.000  Al
  Al3      1.0000 0.00108  0.25772  0.50007  Biso   1.000  Al
  Al4      1.0000 0.99381  0.75772  0.50003  Biso   1.000  Al
  C1       1.0000 0.33693  0.22565  0.25463  Biso   1.000  C 
  C2       1.0000 0.75613  0.91296  0.27514  Biso   1.000  C 
  C3       1.0000 0.08080  0.51629  0.64076  Biso   1.000  C 
  C4       1.0000 0.14067  0.54068  0.69354  Biso   1.000  C 
  C5       1.0000 0.15772  0.72723  0.74893  Biso   1.000  C 
  C6       1.0000 0.21376  0.75593  0.79055  Biso   1.000  C 
  C7       1.0000 0.23887  0.41464  0.71793  Biso   1.000  C 
  C8       1.0000 0.18051  0.38720  0.67972  Biso   1.000  C 
  C9       1.0000 0.91382  0.49964  0.64441  Biso   1.000  C 
  C10      1.0000 0.85407  0.47618  0.69827  Biso   1.000  C 
  C11      1.0000 0.81443  0.88620  0.31443  Biso   1.000  C 
  C12      1.0000 0.28096  0.25415  0.29668  Biso   1.000  C 
  C13      1.0000 0.75582  0.60248  0.72356  Biso   1.000  C 
  C14      1.0000 0.81413  0.62956  0.68463  Biso   1.000  C 
  C15      1.0000 0.78107  0.26159  0.79658  Biso   1.000  C 
  C16      1.0000 0.85424  0.03970  0.30093  Biso   1.000  C 
  C17      1.0000 0.78110  0.25390  0.20218  Biso   1.000  C 
  C18      1.0000 0.83708  0.22535  0.24425  Biso   1.000  C 
  C19      1.0000 0.91400  0.01639  0.35495  Biso   1.000  C 
  C20      1.0000 0.68046  0.38682  0.81901  Biso   1.000  C 
  C21      1.0000 0.31432  0.88638  0.18452  Biso   1.000  C 
  C22      1.0000 0.83706  0.29044  0.75485  Biso   1.000  C 
  C23      1.0000 0.41386  0.49927  0.85470  Biso   1.000  C 
  C24      1.0000 0.25602  0.91309  0.22377  Biso   1.000  C 
  C25      1.0000 0.65760  0.72690  0.75017  Biso   1.000  C 
  C26      1.0000 0.71358  0.75560  0.70821  Biso   1.000  C 
  C27      1.0000 0.28112  0.26180  0.70178  Biso   1.000  C 
  C28      1.0000 0.35412  0.03992  0.19806  Biso   1.000  C 
  C29      1.0000 0.41391  0.01650  0.14426  Biso   1.000  C 
  C30      1.0000 0.08102  0.99846  0.35990  Biso   1.000  C 
  C31      1.0000 0.15796  0.78808  0.25092  Biso   1.000  C 
  C32      1.0000 0.21393  0.75970  0.20863  Biso   1.000  C 
  C33      1.0000 0.23883  0.10110  0.28100  Biso   1.000  C 
  C34      1.0000 0.18052  0.12825  0.31983  Biso   1.000  C 
  C35      1.0000 0.68062  0.12818  0.17927  Biso   1.000  C 
  C36      1.0000 0.73895  0.10095  0.21794  Biso   1.000  C 
  C37      1.0000 0.14083  0.97448  0.30657  Biso   1.000  C 
  C38      1.0000 0.33711  0.29034  0.74371  Biso   1.000  C 
  C39      1.0000 0.35415  0.47595  0.80055  Biso   1.000  C 
  C40      1.0000 0.73878  0.41435  0.78059  Biso   1.000  C 
  C41      1.0000 0.65804  0.78812  0.24821  Biso   1.000  C 
  C42      1.0000 0.25596  0.60268  0.77509  Biso   1.000  C 
  C43      1.0000 0.64060  0.54038  0.80561  Biso   1.000  C 
  C44      1.0000 0.31425  0.62946  0.81417  Biso   1.000  C 
  C45      1.0000 0.64090  0.97450  0.19266  Biso   1.000  C 
  C46      1.0000 0.58103  0.99856  0.13959  Biso   1.000  C 
  C47      1.0000 0.58080  0.51609  0.85875  Biso   1.000  C 
  C48      1.0000 0.71404  0.75964  0.29035  Biso   1.000  C 
  H1       1.0000 0.36920  0.17176  0.73443  Biso   1.000  H 
  H2       1.0000 0.22674  0.89761  0.83542  Biso   1.000  H 
  H3       1.0000 0.62539  0.84543  0.74223  Biso   1.000  H 
  H4       1.0000 0.22695  0.61813  0.16354  Biso   1.000  H 
  H5       1.0000 0.36892  0.34438  0.26366  Biso   1.000  H 
  H6       1.0000 0.16676  0.24509  0.63676  Biso   1.000  H 
  H7       1.0000 0.48014  0.01280  0.82993  Biso   1.000  H 
  H8       1.0000 0.32784  0.77122  0.85794  Biso   1.000  H 
  H9       1.0000 0.26821  0.12065  0.65610  Biso   1.000  H 
  H10      1.0000 0.12552  0.84574  0.75710  Biso   1.000  H 
  H11      1.0000 0.76819  0.12021  0.84195  Biso   1.000  H 
  H12      1.0000 0.62593  0.66946  0.25615  Biso   1.000  H 
  H13      1.0000 0.16673  0.27035  0.36287  Biso   1.000  H 
  H14      1.0000 0.82806  0.74447  0.35824  Biso   1.000  H 
  H15      1.0000 0.47997  0.50219  0.16879  Biso   1.000  H 
  H16      1.0000 0.76814  0.39519  0.15665  Biso   1.000  H 
  H17      1.0000 0.82766  0.77141  0.64100  Biso   1.000  H 
  H18      1.0000 0.32796  0.74465  0.14068  Biso   1.000  H 
  H19      1.0000 0.86919  0.17200  0.76409  Biso   1.000  H 
  H20      1.0000 0.72647  0.89723  0.66317  Biso   1.000  H 
  H21      1.0000 0.66676  0.24462  0.86185  Biso   1.000  H 
  H22      1.0000 0.12587  0.66936  0.24302  Biso   1.000  H 
  H23      1.0000 0.26797  0.39546  0.34216  Biso   1.000  H 
  H24      1.0000 0.72705  0.61810  0.33545  Biso   1.000  H 
  H25      1.0000 0.98018  0.50254  0.33059  Biso   1.000  H 
  H26      1.0000 0.98011  0.01293  0.66954  Biso   1.000  H 
  H27      1.0000 0.66683  0.27032  0.13630  Biso   1.000  H 
  H28      1.0000 0.86909  0.34398  0.23518  Biso   1.000  H 
  O1       1.0000 0.05269  0.83773  0.37887  Biso   1.000  O 
  O2       1.0000 0.55263  0.83792  0.12079  Biso   1.000  O 
  O3       1.0000 0.56286  0.17434  0.11394  Biso   1.000  O 
  O4       1.0000 0.43171  0.67517  0.88196  Biso   1.000  O 
  O5       1.0000 0.44231  0.33790  0.87312  Biso   1.000  O 
  O6       1.0000 0.06284  0.17421  0.38560  Biso   1.000  O 
  O7       1.0000 0.44222  0.17784  0.12555  Biso   1.000  O 
  O8       1.0000 0.43197  0.84050  0.11764  Biso   1.000  O 
  O9       1.0000 0.56285  0.34029  0.88478  Biso   1.000  O 
  O10      1.0000 0.94227  0.33825  0.62605  Biso   1.000  O 
  O11      1.0000 0.55221  0.67656  0.87734  Biso   1.000  O 
  O12      1.0000 0.49628  0.50728  0.08043  Biso   1.000  O 
  O13      1.0000 0.93170  0.67554  0.61737  Biso   1.000  O 
  O14      1.0000 0.06285  0.34046  0.61476  Biso   1.000  O 
  O15      1.0000 0.99635  0.50739  0.41913  Biso   1.000  O 
  O16      1.0000 0.99620  0.00801  0.58095  Biso   1.000  O 
  O17      1.0000 0.49618  0.00776  0.91858  Biso   1.000  O 
  O18      1.0000 0.94228  0.17779  0.37379  Biso   1.000  O 
  O19      1.0000 0.93208  0.84046  0.38161  Biso   1.000  O 
  O20      1.0000 0.05217  0.67673  0.62238  Biso   1.000  O 
