data_image0
_cell_length_a       18.8942
_cell_length_b       6.89353
_cell_length_c       18.0141
_cell_angle_alpha    90.0211
_cell_angle_beta     90.0005
_cell_angle_gamma    90.0014

_symmetry_space_group_name_H-M    "P 1"
_symmetry_int_tables_number       1

loop_
  _symmetry_equiv_pos_as_xyz
  'x, y, z'

loop_
  _atom_site_label
  _atom_site_occupancy
  _atom_site_fract_x
  _atom_site_fract_y
  _atom_site_fract_z
  _atom_site_thermal_displace_type
  _atom_site_B_iso_or_equiv
  _atom_site_type_symbol
  Al1      1.0000 0.49258  0.75805  0.99957  Biso   1.000  Al
  Al2      1.0000 0.50279  0.25800  0.99964  Biso   1.000  Al
  Al3      1.0000 0.00281  0.25758  0.49955  Biso   1.000  Al
  Al4      1.0000 0.99268  0.75767  0.49960  Biso   1.000  Al
  C1       1.0000 0.29169  0.26545  0.75213  Biso   1.000  C 
  C2       1.0000 0.34721  0.03807  0.15474  Biso   1.000  C 
  C3       1.0000 0.40295  0.01596  0.09459  Biso   1.000  C 
  C4       1.0000 0.09226  0.99985  0.40761  Biso   1.000  C 
  C5       1.0000 0.15472  0.79344  0.31158  Biso   1.000  C 
  C6       1.0000 0.20360  0.76454  0.25576  Biso   1.000  C 
  C7       1.0000 0.24438  0.09971  0.26939  Biso   1.000  C 
  C8       1.0000 0.19239  0.12689  0.32584  Biso   1.000  C 
  C9       1.0000 0.69295  0.12665  0.17284  Biso   1.000  C 
  C10      1.0000 0.74503  0.09915  0.22917  Biso   1.000  C 
  C11      1.0000 0.34066  0.29459  0.80779  Biso   1.000  C 
  C12      1.0000 0.70391  0.75105  0.75613  Biso   1.000  C 
  C13      1.0000 0.34748  0.47740  0.84420  Biso   1.000  C 
  C14      1.0000 0.74488  0.41610  0.76994  Biso   1.000  C 
  C15      1.0000 0.65493  0.79355  0.18721  Biso   1.000  C 
  C16      1.0000 0.25075  0.60034  0.76602  Biso   1.000  C 
  C17      1.0000 0.64816  0.53891  0.84790  Biso   1.000  C 
  C18      1.0000 0.30272  0.62719  0.82260  Biso   1.000  C 
  C19      1.0000 0.64817  0.97697  0.15127  Biso   1.000  C 
  C20      1.0000 0.59240  0.51605  0.90781  Biso   1.000  C 
  C21      1.0000 0.70391  0.76437  0.24290  Biso   1.000  C 
  C22      1.0000 0.14789  0.97683  0.34757  Biso   1.000  C 
  C23      1.0000 0.65496  0.72218  0.81187  Biso   1.000  C 
  C24      1.0000 0.59232  0.00022  0.09147  Biso   1.000  C 
  C25      1.0000 0.40310  0.49972  0.90445  Biso   1.000  C 
  C26      1.0000 0.25047  0.91485  0.23287  Biso   1.000  C 
  C27      1.0000 0.34035  0.22086  0.19114  Biso   1.000  C 
  C28      1.0000 0.75093  0.91440  0.26576  Biso   1.000  C 
  C29      1.0000 0.09243  0.51569  0.59138  Biso   1.000  C 
  C30      1.0000 0.14815  0.53845  0.65135  Biso   1.000  C 
  C31      1.0000 0.20388  0.75066  0.74316  Biso   1.000  C 
  C32      1.0000 0.24470  0.41552  0.72946  Biso   1.000  C 
  C33      1.0000 0.19269  0.38834  0.67301  Biso   1.000  C 
  C34      1.0000 0.90318  0.49971  0.59484  Biso   1.000  C 
  C35      1.0000 0.84766  0.47771  0.65520  Biso   1.000  C 
  C36      1.0000 0.80286  0.88755  0.32238  Biso   1.000  C 
  C37      1.0000 0.15499  0.72180  0.68736  Biso   1.000  C 
  C38      1.0000 0.75085  0.60078  0.73331  Biso   1.000  C 
  C39      1.0000 0.80282  0.62747  0.67673  Biso   1.000  C 
  C40      1.0000 0.79200  0.26612  0.74740  Biso   1.000  C 
  C41      1.0000 0.84773  0.03721  0.34394  Biso   1.000  C 
  C42      1.0000 0.79223  0.24894  0.25170  Biso   1.000  C 
  C43      1.0000 0.84097  0.29514  0.69175  Biso   1.000  C 
  C44      1.0000 0.84117  0.21976  0.30736  Biso   1.000  C 
  C45      1.0000 0.90320  0.01524  0.40436  Biso   1.000  C 
  C46      1.0000 0.69282  0.38895  0.82633  Biso   1.000  C 
  C47      1.0000 0.30248  0.88816  0.17631  Biso   1.000  C 
  C48      1.0000 0.29135  0.24989  0.24675  Biso   1.000  C 
  H1       1.0000 0.80700  0.76840  0.64942  Biso   1.000  H 
  H2       1.0000 0.30680  0.74712  0.14908  Biso   1.000  H 
  H3       1.0000 0.87603  0.17767  0.67499  Biso   1.000  H 
  H4       1.0000 0.70703  0.89162  0.72843  Biso   1.000  H 
  H5       1.0000 0.68827  0.24772  0.85334  Biso   1.000  H 
  H6       1.0000 0.97276  0.01409  0.59194  Biso   1.000  H 
  H7       1.0000 0.28825  0.39037  0.27456  Biso   1.000  H 
  H8       1.0000 0.70700  0.62363  0.27048  Biso   1.000  H 
  H9       1.0000 0.97256  0.50161  0.40731  Biso   1.000  H 
  H10      1.0000 0.68847  0.26794  0.14587  Biso   1.000  H 
  H11      1.0000 0.87627  0.33711  0.32411  Biso   1.000  H 
  H12      1.0000 0.78932  0.38931  0.22384  Biso   1.000  H 
  H13      1.0000 0.11994  0.67600  0.32914  Biso   1.000  H 
  H14      1.0000 0.47304  0.50206  0.09213  Biso   1.000  H 
  H15      1.0000 0.62000  0.67635  0.16972  Biso   1.000  H 
  H16      1.0000 0.18779  0.26821  0.35281  Biso   1.000  H 
  H17      1.0000 0.80695  0.74662  0.34970  Biso   1.000  H 
  H18      1.0000 0.37561  0.17703  0.82466  Biso   1.000  H 
  H19      1.0000 0.62009  0.83951  0.82934  Biso   1.000  H 
  H20      1.0000 0.20677  0.62379  0.22814  Biso   1.000  H 
  H21      1.0000 0.37530  0.33846  0.17431  Biso   1.000  H 
  H22      1.0000 0.20704  0.89131  0.77083  Biso   1.000  H 
  H23      1.0000 0.47332  0.01414  0.90698  Biso   1.000  H 
  H24      1.0000 0.30695  0.76827  0.84983  Biso   1.000  H 
  H25      1.0000 0.28865  0.12490  0.72438  Biso   1.000  H 
  H26      1.0000 0.12019  0.83921  0.66981  Biso   1.000  H 
  H27      1.0000 0.78906  0.12576  0.77527  Biso   1.000  H 
  H28      1.0000 0.18807  0.24703  0.64603  Biso   1.000  H 
  O1       1.0000 0.56354  0.67340  0.92980  Biso   1.000  O 
  O2       1.0000 0.93185  0.17364  0.42620  Biso   1.000  O 
  O3       1.0000 0.49555  0.00816  0.95547  Biso   1.000  O 
  O4       1.0000 0.99555  0.00785  0.54373  Biso   1.000  O 
  O5       1.0000 0.99544  0.50749  0.45548  Biso   1.000  O 
  O6       1.0000 0.07689  0.34591  0.56768  Biso   1.000  O 
  O7       1.0000 0.91851  0.66976  0.57093  Biso   1.000  O 
  O8       1.0000 0.49547  0.50790  0.04374  Biso   1.000  O 
  O9       1.0000 0.93161  0.34120  0.57278  Biso   1.000  O 
  O10      1.0000 0.41832  0.66984  0.92841  Biso   1.000  O 
  O11      1.0000 0.41815  0.84597  0.07049  Biso   1.000  O 
  O12      1.0000 0.43175  0.17426  0.07289  Biso   1.000  O 
  O13      1.0000 0.07696  0.16965  0.43146  Biso   1.000  O 
  O14      1.0000 0.43173  0.34139  0.92637  Biso   1.000  O 
  O15      1.0000 0.57700  0.17003  0.06770  Biso   1.000  O 
  O16      1.0000 0.56327  0.84305  0.06958  Biso   1.000  O 
  O17      1.0000 0.06338  0.84259  0.42961  Biso   1.000  O 
  O18      1.0000 0.91828  0.84531  0.42857  Biso   1.000  O 
  O19      1.0000 0.57698  0.34627  0.93153  Biso   1.000  O 
  O20      1.0000 0.06371  0.67312  0.56931  Biso   1.000  O 
