data_image0
_cell_length_a       23.2986
_cell_length_b       6.68382
_cell_length_c       9.48339
_cell_angle_alpha    90.0157
_cell_angle_beta     89.9948
_cell_angle_gamma    89.8971

_symmetry_space_group_name_H-M    "P 1"
_symmetry_int_tables_number       1

loop_
  _symmetry_equiv_pos_as_xyz
  'x, y, z'

loop_
  _atom_site_label
  _atom_site_occupancy
  _atom_site_fract_x
  _atom_site_fract_y
  _atom_site_fract_z
  _atom_site_thermal_displace_type
  _atom_site_B_iso_or_equiv
  _atom_site_type_symbol
  Al1      1.0000 0.49389  0.75768  0.99963  Biso   1.000  Al
  Al2      1.0000 0.50097  0.25769  0.99959  Biso   1.000  Al
  Al3      1.0000 0.00095  0.25767  0.49988  Biso   1.000  Al
  Al4      1.0000 0.99391  0.75769  0.49978  Biso   1.000  Al
  C1       1.0000 0.33593  0.22619  0.26208  Biso   1.000  C 
  C2       1.0000 0.75650  0.91259  0.27558  Biso   1.000  C 
  C3       1.0000 0.08065  0.51621  0.64762  Biso   1.000  C 
  C4       1.0000 0.14070  0.54050  0.69967  Biso   1.000  C 
  C5       1.0000 0.15852  0.72753  0.75595  Biso   1.000  C 
  C6       1.0000 0.21478  0.75649  0.79498  Biso   1.000  C 
  C7       1.0000 0.23849  0.41419  0.71790  Biso   1.000  C 
  C8       1.0000 0.17998  0.38651  0.68284  Biso   1.000  C 
  C9       1.0000 0.91419  0.49969  0.65200  Biso   1.000  C 
  C10      1.0000 0.85418  0.47625  0.70465  Biso   1.000  C 
  C11      1.0000 0.81503  0.88578  0.31128  Biso   1.000  C 
  C12      1.0000 0.27964  0.25470  0.30105  Biso   1.000  C 
  C13      1.0000 0.75634  0.60288  0.72323  Biso   1.000  C 
  C14      1.0000 0.81483  0.63010  0.68760  Biso   1.000  C 
  C15      1.0000 0.78006  0.26082  0.80069  Biso   1.000  C 
  C16      1.0000 0.85416  0.03985  0.29436  Biso   1.000  C 
  C17      1.0000 0.77976  0.25459  0.19790  Biso   1.000  C 
  C18      1.0000 0.83604  0.22600  0.23690  Biso   1.000  C 
  C19      1.0000 0.91415  0.01667  0.34745  Biso   1.000  C 
  C20      1.0000 0.67993  0.38635  0.81593  Biso   1.000  C 
  C21      1.0000 0.31497  0.88591  0.18750  Biso   1.000  C 
  C22      1.0000 0.83632  0.28989  0.76193  Biso   1.000  C 
  C23      1.0000 0.41419  0.49956  0.84735  Biso   1.000  C 
  C24      1.0000 0.25644  0.91263  0.22325  Biso   1.000  C 
  C25      1.0000 0.65847  0.72741  0.74312  Biso   1.000  C 
  C26      1.0000 0.71470  0.75632  0.70387  Biso   1.000  C 
  C27      1.0000 0.28014  0.26104  0.69782  Biso   1.000  C 
  C28      1.0000 0.35407  0.04004  0.20458  Biso   1.000  C 
  C29      1.0000 0.41413  0.01692  0.15182  Biso   1.000  C 
  C30      1.0000 0.08061  0.99814  0.35186  Biso   1.000  C 
  C31      1.0000 0.15877  0.78745  0.24302  Biso   1.000  C 
  C32      1.0000 0.21505  0.75892  0.20376  Biso   1.000  C 
  C33      1.0000 0.23823  0.10129  0.28095  Biso   1.000  C 
  C34      1.0000 0.17969  0.12851  0.31622  Biso   1.000  C 
  C35      1.0000 0.67978  0.12861  0.18279  Biso   1.000  C 
  C36      1.0000 0.73832  0.10126  0.21794  Biso   1.000  C 
  C37      1.0000 0.14067  0.97425  0.29948  Biso   1.000  C 
  C38      1.0000 0.33638  0.28995  0.73684  Biso   1.000  C 
  C39      1.0000 0.35422  0.47619  0.79437  Biso   1.000  C 
  C40      1.0000 0.73843  0.41401  0.78072  Biso   1.000  C 
  C41      1.0000 0.65880  0.78760  0.25608  Biso   1.000  C 
  C42      1.0000 0.25640  0.60301  0.77554  Biso   1.000  C 
  C43      1.0000 0.64066  0.54040  0.79940  Biso   1.000  C 
  C44      1.0000 0.31488  0.63010  0.81135  Biso   1.000  C 
  C45      1.0000 0.64074  0.97441  0.19962  Biso   1.000  C 
  C46      1.0000 0.58068  0.99828  0.14738  Biso   1.000  C 
  C47      1.0000 0.58062  0.51606  0.85167  Biso   1.000  C 
  C48      1.0000 0.71509  0.75896  0.29516  Biso   1.000  C 
  H1       1.0000 0.36804  0.17111  0.72469  Biso   1.000  H 
  H2       1.0000 0.22835  0.89847  0.84092  Biso   1.000  H 
  H3       1.0000 0.62670  0.84624  0.73237  Biso   1.000  H 
  H4       1.0000 0.22882  0.61709  0.15766  Biso   1.000  H 
  H5       1.0000 0.36742  0.34520  0.27420  Biso   1.000  H 
  H6       1.0000 0.16565  0.24387  0.63948  Biso   1.000  H 
  H7       1.0000 0.48049  0.01278  0.81919  Biso   1.000  H 
  H8       1.0000 0.32906  0.77236  0.85562  Biso   1.000  H 
  H9       1.0000 0.26658  0.11945  0.65128  Biso   1.000  H 
  H10      1.0000 0.12674  0.84631  0.76694  Biso   1.000  H 
  H11      1.0000 0.76651  0.11907  0.84693  Biso   1.000  H 
  H12      1.0000 0.62719  0.66868  0.26700  Biso   1.000  H 
  H13      1.0000 0.16515  0.27098  0.35971  Biso   1.000  H 
  H14      1.0000 0.82940  0.74361  0.35556  Biso   1.000  H 
  H15      1.0000 0.48039  0.50262  0.17991  Biso   1.000  H 
  H16      1.0000 0.76602  0.39616  0.15145  Biso   1.000  H 
  H17      1.0000 0.82902  0.77242  0.64348  Biso   1.000  H 
  H18      1.0000 0.32939  0.74375  0.14321  Biso   1.000  H 
  H19      1.0000 0.86802  0.17116  0.77407  Biso   1.000  H 
  H20      1.0000 0.72824  0.89824  0.65783  Biso   1.000  H 
  H21      1.0000 0.66561  0.24368  0.85922  Biso   1.000  H 
  H22      1.0000 0.12718  0.66842  0.23207  Biso   1.000  H 
  H23      1.0000 0.26587  0.39626  0.34751  Biso   1.000  H 
  H24      1.0000 0.72885  0.61714  0.34121  Biso   1.000  H 
  H25      1.0000 0.98058  0.50274  0.31937  Biso   1.000  H 
  H26      1.0000 0.98061  0.01283  0.68031  Biso   1.000  H 
  H27      1.0000 0.66526  0.27111  0.13935  Biso   1.000  H 
  H28      1.0000 0.86754  0.34499  0.22488  Biso   1.000  H 
  O1       1.0000 0.05236  0.83748  0.37072  Biso   1.000  O 
  O2       1.0000 0.55248  0.83754  0.12832  Biso   1.000  O 
  O3       1.0000 0.56219  0.17395  0.12168  Biso   1.000  O 
  O4       1.0000 0.43222  0.67538  0.87495  Biso   1.000  O 
  O5       1.0000 0.44270  0.33833  0.86524  Biso   1.000  O 
  O6       1.0000 0.06216  0.17383  0.37776  Biso   1.000  O 
  O7       1.0000 0.44224  0.17843  0.13305  Biso   1.000  O 
  O8       1.0000 0.43259  0.84107  0.12526  Biso   1.000  O 
  O9       1.0000 0.56254  0.34036  0.87823  Biso   1.000  O 
  O10      1.0000 0.94264  0.33834  0.63399  Biso   1.000  O 
  O11      1.0000 0.55200  0.67647  0.86980  Biso   1.000  O 
  O12      1.0000 0.49630  0.50737  0.08564  Biso   1.000  O 
  O13      1.0000 0.93230  0.67550  0.62474  Biso   1.000  O 
  O14      1.0000 0.06250  0.34051  0.62129  Biso   1.000  O 
  O15      1.0000 0.99630  0.50733  0.41384  Biso   1.000  O 
  O16      1.0000 0.99629  0.00793  0.58581  Biso   1.000  O 
  O17      1.0000 0.49630  0.00790  0.91358  Biso   1.000  O 
  O18      1.0000 0.94230  0.17810  0.36620  Biso   1.000  O 
  O19      1.0000 0.93252  0.84082  0.37434  Biso   1.000  O 
  O20      1.0000 0.05208  0.67666  0.62935  Biso   1.000  O 
