data_image0
_cell_length_a       23.6913
_cell_length_b       6.71486
_cell_length_c       7.50692
_cell_angle_alpha    90.1438
_cell_angle_beta     90.0219
_cell_angle_gamma    89.8909

_symmetry_space_group_name_H-M    "P 1"
_symmetry_int_tables_number       1

loop_
  _symmetry_equiv_pos_as_xyz
  'x, y, z'

loop_
  _atom_site_label
  _atom_site_occupancy
  _atom_site_fract_x
  _atom_site_fract_y
  _atom_site_fract_z
  _atom_site_thermal_displace_type
  _atom_site_B_iso_or_equiv
  _atom_site_type_symbol
  Al1      1.0000 0.49346  0.75800  0.99892  Biso   1.000  Al
  Al2      1.0000 0.50001  0.25800  0.99851  Biso   1.000  Al
  Al3      1.0000 0.00009  0.25726  0.50045  Biso   1.000  Al
  Al4      1.0000 0.99357  0.75731  0.50014  Biso   1.000  Al
  C1       1.0000 0.33288  0.23448  0.27088  Biso   1.000  C 
  C2       1.0000 0.75803  0.91013  0.26555  Biso   1.000  C 
  C3       1.0000 0.07870  0.51531  0.68364  Biso   1.000  C 
  C4       1.0000 0.13958  0.54057  0.72860  Biso   1.000  C 
  C5       1.0000 0.16021  0.73324  0.77127  Biso   1.000  C 
  C6       1.0000 0.21698  0.76323  0.79642  Biso   1.000  C 
  C7       1.0000 0.23548  0.40972  0.73382  Biso   1.000  C 
  C8       1.0000 0.17664  0.38152  0.71330  Biso   1.000  C 
  C9       1.0000 0.91332  0.50054  0.67764  Biso   1.000  C 
  C10      1.0000 0.85227  0.47504  0.72008  Biso   1.000  C 
  C11      1.0000 0.81687  0.88194  0.28685  Biso   1.000  C 
  C12      1.0000 0.27609  0.26379  0.29699  Biso   1.000  C 
  C13      1.0000 0.75627  0.60517  0.72415  Biso   1.000  C 
  C14      1.0000 0.81511  0.63365  0.70412  Biso   1.000  C 
  C15      1.0000 0.77491  0.25208  0.78657  Biso   1.000  C 
  C16      1.0000 0.85384  0.04069  0.27143  Biso   1.000  C 
  C17      1.0000 0.77629  0.26301  0.20236  Biso   1.000  C 
  C18      1.0000 0.83306  0.23303  0.22818  Biso   1.000  C 
  C19      1.0000 0.91478  0.01562  0.31637  Biso   1.000  C 
  C20      1.0000 0.67669  0.38142  0.78596  Biso   1.000  C 
  C21      1.0000 0.31700  0.88289  0.21198  Biso   1.000  C 
  C22      1.0000 0.83168  0.28237  0.76198  Biso   1.000  C 
  C23      1.0000 0.41332  0.50021  0.82134  Biso   1.000  C 
  C24      1.0000 0.25814  0.91042  0.23346  Biso   1.000  C 
  C25      1.0000 0.66011  0.73270  0.72786  Biso   1.000  C 
  C26      1.0000 0.71686  0.76286  0.70263  Biso   1.000  C 
  C27      1.0000 0.27481  0.25168  0.71244  Biso   1.000  C 
  C28      1.0000 0.35381  0.04218  0.22739  Biso   1.000  C 
  C29      1.0000 0.41470  0.01725  0.18222  Biso   1.000  C 
  C30      1.0000 0.08029  0.99864  0.32369  Biso   1.000  C 
  C31      1.0000 0.16229  0.78138  0.23796  Biso   1.000  C 
  C32      1.0000 0.21908  0.75202  0.21228  Biso   1.000  C 
  C33      1.0000 0.23700  0.10551  0.27555  Biso   1.000  C 
  C34      1.0000 0.17813  0.13314  0.29644  Biso   1.000  C 
  C35      1.0000 0.67819  0.13361  0.20302  Biso   1.000  C 
  C36      1.0000 0.73705  0.10532  0.22374  Biso   1.000  C 
  C37      1.0000 0.14134  0.97384  0.28064  Biso   1.000  C 
  C38      1.0000 0.33160  0.28182  0.73694  Biso   1.000  C 
  C39      1.0000 0.35227  0.47465  0.77879  Biso   1.000  C 
  C40      1.0000 0.73551  0.40981  0.76529  Biso   1.000  C 
  C41      1.0000 0.66203  0.78239  0.26131  Biso   1.000  C 
  C42      1.0000 0.25632  0.60524  0.77483  Biso   1.000  C 
  C43      1.0000 0.63957  0.54020  0.77062  Biso   1.000  C 
  C44      1.0000 0.31518  0.63357  0.79468  Biso   1.000  C 
  C45      1.0000 0.64124  0.97491  0.21886  Biso   1.000  C 
  C46      1.0000 0.58019  0.00009  0.17592  Biso   1.000  C 
  C47      1.0000 0.57869  0.51498  0.81545  Biso   1.000  C 
  C48      1.0000 0.71881  0.75233  0.28667  Biso   1.000  C 
  H1       1.0000 0.36174  0.16009  0.72313  Biso   1.000  H 
  H2       1.0000 0.23258  0.90867  0.83717  Biso   1.000  H 
  H3       1.0000 0.62992  0.85425  0.71431  Biso   1.000  H 
  H4       1.0000 0.23491  0.60689  0.17101  Biso   1.000  H 
  H5       1.0000 0.36281  0.35652  0.28449  Biso   1.000  H 
  H6       1.0000 0.16019  0.23440  0.68041  Biso   1.000  H 
  H7       1.0000 0.49527  0.00745  0.76169  Biso   1.000  H 
  H8       1.0000 0.33167  0.78078  0.82706  Biso   1.000  H 
  H9       1.0000 0.25921  0.10618  0.67192  Biso   1.000  H 
  H10      1.0000 0.13005  0.85498  0.78482  Biso   1.000  H 
  H11      1.0000 0.75938  0.10667  0.82700  Biso   1.000  H 
  H12      1.0000 0.63197  0.66080  0.27471  Biso   1.000  H 
  H13      1.0000 0.16140  0.28008  0.32933  Biso   1.000  H 
  H14      1.0000 0.83339  0.73501  0.32022  Biso   1.000  H 
  H15      1.0000 0.49671  0.50824  0.23583  Biso   1.000  H 
  H16      1.0000 0.76061  0.40818  0.16117  Biso   1.000  H 
  H17      1.0000 0.83153  0.78074  0.67161  Biso   1.000  H 
  H18      1.0000 0.33365  0.73603  0.17843  Biso   1.000  H 
  H19      1.0000 0.86185  0.16078  0.77567  Biso   1.000  H 
  H20      1.0000 0.73238  0.90816  0.66185  Biso   1.000  H 
  H21      1.0000 0.66031  0.23443  0.81897  Biso   1.000  H 
  H22      1.0000 0.13234  0.65940  0.22447  Biso   1.000  H 
  H23      1.0000 0.26030  0.40890  0.33851  Biso   1.000  H 
  H24      1.0000 0.73449  0.60710  0.32761  Biso   1.000  H 
  H25      1.0000 0.99535  0.50610  0.26329  Biso   1.000  H 
  H26      1.0000 0.99289  0.00885  0.73699  Biso   1.000  H 
  H27      1.0000 0.66160  0.28060  0.17018  Biso   1.000  H 
  H28      1.0000 0.86309  0.35468  0.21464  Biso   1.000  H 
  O1       1.0000 0.05176  0.83891  0.33953  Biso   1.000  O 
  O2       1.0000 0.55158  0.84038  0.16030  Biso   1.000  O 
  O3       1.0000 0.56111  0.17548  0.15141  Biso   1.000  O 
  O4       1.0000 0.43209  0.67577  0.84669  Biso   1.000  O 
  O5       1.0000 0.44224  0.34075  0.83598  Biso   1.000  O 
  O6       1.0000 0.06114  0.17407  0.34807  Biso   1.000  O 
  O7       1.0000 0.44320  0.17697  0.16501  Biso   1.000  O 
  O8       1.0000 0.43375  0.84175  0.15713  Biso   1.000  O 
  O9       1.0000 0.56001  0.33957  0.84124  Biso   1.000  O 
  O10      1.0000 0.94226  0.34099  0.66310  Biso   1.000  O 
  O11      1.0000 0.54984  0.67449  0.83177  Biso   1.000  O 
  O12      1.0000 0.49722  0.50824  0.10691  Biso   1.000  O 
  O13      1.0000 0.93206  0.67600  0.65229  Biso   1.000  O 
  O14      1.0000 0.05998  0.33982  0.65779  Biso   1.000  O 
  O15      1.0000 0.99718  0.50705  0.39210  Biso   1.000  O 
  O16      1.0000 0.99612  0.00763  0.60846  Biso   1.000  O 
  O17      1.0000 0.49621  0.00770  0.89059  Biso   1.000  O 
  O18      1.0000 0.94332  0.17538  0.33342  Biso   1.000  O 
  O19      1.0000 0.93379  0.84021  0.34144  Biso   1.000  O 
  O20      1.0000 0.04988  0.67477  0.66723  Biso   1.000  O 
