data_image0
_cell_length_a       23.5808
_cell_length_b       6.69581
_cell_length_c       8.14551
_cell_angle_alpha    90.1558
_cell_angle_beta     90.0714
_cell_angle_gamma    89.9399

_symmetry_space_group_name_H-M    "P 1"
_symmetry_int_tables_number       1

loop_
  _symmetry_equiv_pos_as_xyz
  'x, y, z'

loop_
  _atom_site_label
  _atom_site_occupancy
  _atom_site_fract_x
  _atom_site_fract_y
  _atom_site_fract_z
  _atom_site_thermal_displace_type
  _atom_site_B_iso_or_equiv
  _atom_site_type_symbol
  Al1      1.0000 0.49344  0.75810  0.99827  Biso   1.000  Al
  Al2      1.0000 0.50007  0.25807  0.99797  Biso   1.000  Al
  Al3      1.0000 0.00013  0.25728  0.50057  Biso   1.000  Al
  Al4      1.0000 0.99348  0.75736  0.50058  Biso   1.000  Al
  C1       1.0000 0.33429  0.23168  0.27190  Biso   1.000  C 
  C2       1.0000 0.75788  0.91111  0.26988  Biso   1.000  C 
  C3       1.0000 0.07842  0.51587  0.67420  Biso   1.000  C 
  C4       1.0000 0.13900  0.54028  0.72300  Biso   1.000  C 
  C5       1.0000 0.15896  0.73089  0.77363  Biso   1.000  C 
  C6       1.0000 0.21573  0.76065  0.80315  Biso   1.000  C 
  C7       1.0000 0.23548  0.41068  0.72962  Biso   1.000  C 
  C8       1.0000 0.17663  0.38280  0.70419  Biso   1.000  C 
  C9       1.0000 0.91297  0.50015  0.66660  Biso   1.000  C 
  C10      1.0000 0.85222  0.47564  0.71351  Biso   1.000  C 
  C11      1.0000 0.81670  0.88298  0.29613  Biso   1.000  C 
  C12      1.0000 0.27760  0.26094  0.30293  Biso   1.000  C 
  C13      1.0000 0.75563  0.60448  0.71979  Biso   1.000  C 
  C14      1.0000 0.81446  0.63261  0.69437  Biso   1.000  C 
  C15      1.0000 0.77565  0.25522  0.79355  Biso   1.000  C 
  C16      1.0000 0.85440  0.03994  0.27761  Biso   1.000  C 
  C17      1.0000 0.77774  0.26029  0.19636  Biso   1.000  C 
  C18      1.0000 0.83446  0.23030  0.22668  Biso   1.000  C 
  C19      1.0000 0.91500  0.01548  0.32649  Biso   1.000  C 
  C20      1.0000 0.67683  0.38316  0.79544  Biso   1.000  C 
  C21      1.0000 0.31678  0.88379  0.20220  Biso   1.000  C 
  C22      1.0000 0.83237  0.28524  0.76405  Biso   1.000  C 
  C23      1.0000 0.41300  0.49968  0.83178  Biso   1.000  C 
  C24      1.0000 0.25798  0.91116  0.22912  Biso   1.000  C 
  C25      1.0000 0.65886  0.73057  0.72598  Biso   1.000  C 
  C26      1.0000 0.71557  0.76058  0.69617  Biso   1.000  C 
  C27      1.0000 0.27541  0.25413  0.70581  Biso   1.000  C 
  C28      1.0000 0.35433  0.04137  0.22048  Biso   1.000  C 
  C29      1.0000 0.41488  0.01728  0.17111  Biso   1.000  C 
  C30      1.0000 0.08066  0.99836  0.33527  Biso   1.000  C 
  C31      1.0000 0.16145  0.78365  0.23674  Biso   1.000  C 
  C32      1.0000 0.21816  0.75435  0.20602  Biso   1.000  C 
  C33      1.0000 0.23776  0.10420  0.27977  Biso   1.000  C 
  C34      1.0000 0.17894  0.13166  0.30632  Biso   1.000  C 
  C35      1.0000 0.67892  0.13237  0.19365  Biso   1.000  C 
  C36      1.0000 0.73777  0.10421  0.21968  Biso   1.000  C 
  C37      1.0000 0.14138  0.97409  0.28773  Biso   1.000  C 
  C38      1.0000 0.33219  0.28404  0.73496  Biso   1.000  C 
  C39      1.0000 0.35220  0.47477  0.78512  Biso   1.000  C 
  C40      1.0000 0.73562  0.41131  0.76973  Biso   1.000  C 
  C41      1.0000 0.66119  0.78501  0.26309  Biso   1.000  C 
  C42      1.0000 0.25566  0.60412  0.77926  Biso   1.000  C 
  C43      1.0000 0.63907  0.54015  0.77667  Biso   1.000  C 
  C44      1.0000 0.31454  0.63210  0.80427  Biso   1.000  C 
  C45      1.0000 0.64124  0.97542  0.21237  Biso   1.000  C 
  C46      1.0000 0.58050  0.00000  0.16481  Biso   1.000  C 
  C47      1.0000 0.57852  0.51549  0.82530  Biso   1.000  C 
  C48      1.0000 0.71792  0.75501  0.29323  Biso   1.000  C 
  H1       1.0000 0.36276  0.16328  0.71997  Biso   1.000  H 
  H2       1.0000 0.23090  0.90504  0.84674  Biso   1.000  H 
  H3       1.0000 0.62821  0.85106  0.71129  Biso   1.000  H 
  H4       1.0000 0.23336  0.61012  0.16189  Biso   1.000  H 
  H5       1.0000 0.36475  0.35272  0.28623  Biso   1.000  H 
  H6       1.0000 0.16065  0.23740  0.66517  Biso   1.000  H 
  H7       1.0000 0.49555  0.00736  0.77993  Biso   1.000  H 
  H8       1.0000 0.33054  0.77762  0.84288  Biso   1.000  H 
  H9       1.0000 0.26022  0.10967  0.66238  Biso   1.000  H 
  H10      1.0000 0.12838  0.85166  0.78839  Biso   1.000  H 
  H11      1.0000 0.76059  0.11105  0.83723  Biso   1.000  H 
  H12      1.0000 0.63061  0.66454  0.27757  Biso   1.000  H 
  H13      1.0000 0.16297  0.27705  0.34561  Biso   1.000  H 
  H14      1.0000 0.83257  0.73769  0.33554  Biso   1.000  H 
  H15      1.0000 0.49707  0.50850  0.21639  Biso   1.000  H 
  H16      1.0000 0.76263  0.40458  0.15260  Biso   1.000  H 
  H17      1.0000 0.83028  0.77796  0.65549  Biso   1.000  H 
  H18      1.0000 0.33272  0.73856  0.16242  Biso   1.000  H 
  H19      1.0000 0.86300  0.16476  0.77896  Biso   1.000  H 
  H20      1.0000 0.73060  0.90485  0.65258  Biso   1.000  H 
  H21      1.0000 0.66103  0.23792  0.83466  Biso   1.000  H 
  H22      1.0000 0.13097  0.66270  0.22245  Biso   1.000  H 
  H23      1.0000 0.26243  0.40515  0.34719  Biso   1.000  H 
  H24      1.0000 0.73303  0.61078  0.33706  Biso   1.000  H 
  H25      1.0000 0.99516  0.50606  0.28248  Biso   1.000  H 
  H26      1.0000 0.99282  0.00912  0.71845  Biso   1.000  H 
  H27      1.0000 0.66301  0.27772  0.15458  Biso   1.000  H 
  H28      1.0000 0.86502  0.35083  0.21221  Biso   1.000  H 
  O1       1.0000 0.05222  0.83796  0.35220  Biso   1.000  O 
  O2       1.0000 0.55202  0.83956  0.14781  Biso   1.000  O 
  O3       1.0000 0.56167  0.17564  0.13897  Biso   1.000  O 
  O4       1.0000 0.43166  0.67552  0.85795  Biso   1.000  O 
  O5       1.0000 0.44170  0.33947  0.84796  Biso   1.000  O 
  O6       1.0000 0.06177  0.17408  0.36100  Biso   1.000  O 
  O7       1.0000 0.44317  0.17782  0.15266  Biso   1.000  O 
  O8       1.0000 0.43374  0.84161  0.14495  Biso   1.000  O 
  O9       1.0000 0.55998  0.33983  0.85188  Biso   1.000  O 
  O10      1.0000 0.94156  0.33966  0.65011  Biso   1.000  O 
  O11      1.0000 0.54991  0.67577  0.84292  Biso   1.000  O 
  O12      1.0000 0.49745  0.50835  0.09759  Biso   1.000  O 
  O13      1.0000 0.93164  0.67583  0.64061  Biso   1.000  O 
  O14      1.0000 0.05977  0.34019  0.64756  Biso   1.000  O 
  O15      1.0000 0.99737  0.50710  0.40112  Biso   1.000  O 
  O16      1.0000 0.99593  0.00780  0.60000  Biso   1.000  O 
  O17      1.0000 0.49615  0.00775  0.89872  Biso   1.000  O 
  O18      1.0000 0.94347  0.17591  0.34445  Biso   1.000  O 
  O19      1.0000 0.93374  0.83983  0.35293  Biso   1.000  O 
  O20      1.0000 0.04988  0.67618  0.65633  Biso   1.000  O 
