data_image0
_cell_length_a       23.7917
_cell_length_b       6.77352
_cell_length_c       6.62082
_cell_angle_alpha    90.184
_cell_angle_beta     90.0233
_cell_angle_gamma    89.836

_symmetry_space_group_name_H-M    "P 1"
_symmetry_int_tables_number       1

loop_
  _symmetry_equiv_pos_as_xyz
  'x, y, z'

loop_
  _atom_site_label
  _atom_site_occupancy
  _atom_site_fract_x
  _atom_site_fract_y
  _atom_site_fract_z
  _atom_site_thermal_displace_type
  _atom_site_B_iso_or_equiv
  _atom_site_type_symbol
  Al1      1.0000 0.49363  0.75831  0.99906  Biso   1.000  Al
  Al2      1.0000 0.49982  0.25834  0.99912  Biso   1.000  Al
  Al3      1.0000 0.99986  0.25765  0.50013  Biso   1.000  Al
  Al4      1.0000 0.99368  0.75756  0.50028  Biso   1.000  Al
  C1       1.0000 0.27409  0.25124  0.73060  Biso   1.000  C 
  C2       1.0000 0.35368  0.04104  0.23829  Biso   1.000  C 
  C3       1.0000 0.41501  0.01583  0.20119  Biso   1.000  C 
  C4       1.0000 0.08011  0.99980  0.30610  Biso   1.000  C 
  C5       1.0000 0.16323  0.78093  0.24565  Biso   1.000  C 
  C6       1.0000 0.22004  0.75125  0.22904  Biso   1.000  C 
  C7       1.0000 0.23665  0.10591  0.26601  Biso   1.000  C 
  C8       1.0000 0.17775  0.13433  0.27744  Biso   1.000  C 
  C9       1.0000 0.67787  0.13513  0.22199  Biso   1.000  C 
  C10      1.0000 0.73675  0.10592  0.23314  Biso   1.000  C 
  C11      1.0000 0.33082  0.28185  0.74609  Biso   1.000  C 
  C12      1.0000 0.71748  0.76359  0.71990  Biso   1.000  C 
  C13      1.0000 0.35205  0.47589  0.76925  Biso   1.000  C 
  C14      1.0000 0.73517  0.40925  0.75527  Biso   1.000  C 
  C15      1.0000 0.66299  0.78213  0.25330  Biso   1.000  C 
  C16      1.0000 0.25654  0.60595  0.76508  Biso   1.000  C 
  C17      1.0000 0.63964  0.53894  0.75995  Biso   1.000  C 
  C18      1.0000 0.31538  0.63521  0.77574  Biso   1.000  C 
  C19      1.0000 0.64146  0.97590  0.22909  Biso   1.000  C 
  C20      1.0000 0.57838  0.51302  0.79703  Biso   1.000  C 
  C21      1.0000 0.71977  0.75166  0.26950  Biso   1.000  C 
  C22      1.0000 0.14152  0.97454  0.27034  Biso   1.000  C 
  C23      1.0000 0.66076  0.73282  0.73559  Biso   1.000  C 
  C24      1.0000 0.58005  0.00156  0.19374  Biso   1.000  C 
  C25      1.0000 0.41343  0.50200  0.80420  Biso   1.000  C 
  C26      1.0000 0.25856  0.90968  0.24291  Biso   1.000  C 
  C27      1.0000 0.33198  0.23457  0.26370  Biso   1.000  C 
  C28      1.0000 0.75846  0.90949  0.25582  Biso   1.000  C 
  C29      1.0000 0.07838  0.51345  0.70225  Biso   1.000  C 
  C30      1.0000 0.13967  0.53937  0.73910  Biso   1.000  C 
  C31      1.0000 0.21760  0.76390  0.77885  Biso   1.000  C 
  C32      1.0000 0.23514  0.40923  0.74372  Biso   1.000  C 
  C33      1.0000 0.17631  0.38002  0.73252  Biso   1.000  C 
  C34      1.0000 0.91342  0.50235  0.69482  Biso   1.000  C 
  C35      1.0000 0.85204  0.47628  0.72962  Biso   1.000  C 
  C36      1.0000 0.81734  0.88031  0.26743  Biso   1.000  C 
  C37      1.0000 0.16086  0.73333  0.76330  Biso   1.000  C 
  C38      1.0000 0.75649  0.60592  0.73364  Biso   1.000  C 
  C39      1.0000 0.81532  0.63538  0.72288  Biso   1.000  C 
  C40      1.0000 0.77417  0.25152  0.76845  Biso   1.000  C 
  C41      1.0000 0.85374  0.03957  0.26040  Biso   1.000  C 
  C42      1.0000 0.77545  0.26368  0.21894  Biso   1.000  C 
  C43      1.0000 0.83089  0.28232  0.75298  Biso   1.000  C 
  C44      1.0000 0.83223  0.23325  0.23530  Biso   1.000  C 
  C45      1.0000 0.91507  0.01404  0.29748  Biso   1.000  C 
  C46      1.0000 0.67635  0.37981  0.76657  Biso   1.000  C 
  C47      1.0000 0.31745  0.88126  0.23112  Biso   1.000  C 
  C48      1.0000 0.27518  0.26426  0.28040  Biso   1.000  C 
  H1       1.0000 0.83209  0.78385  0.70470  Biso   1.000  H 
  H2       1.0000 0.33464  0.73308  0.21165  Biso   1.000  H 
  H3       1.0000 0.86065  0.16030  0.76173  Biso   1.000  H 
  H4       1.0000 0.73324  0.90998  0.68760  Biso   1.000  H 
  H5       1.0000 0.65959  0.23139  0.78537  Biso   1.000  H 
  H6       1.0000 0.99343  0.00922  0.76932  Biso   1.000  H 
  H7       1.0000 0.25894  0.41020  0.31421  Biso   1.000  H 
  H8       1.0000 0.73585  0.60548  0.30231  Biso   1.000  H 
  H9       1.0000 0.99593  0.50642  0.23079  Biso   1.000  H 
  H10      1.0000 0.66082  0.28350  0.20328  Biso   1.000  H 
  H11      1.0000 0.86177  0.35532  0.22614  Biso   1.000  H 
  H12      1.0000 0.75939  0.40977  0.18565  Biso   1.000  H 
  H13      1.0000 0.13381  0.65843  0.23662  Biso   1.000  H 
  H14      1.0000 0.49673  0.50894  0.26854  Biso   1.000  H 
  H15      1.0000 0.63344  0.66007  0.26223  Biso   1.000  H 
  H16      1.0000 0.16053  0.28254  0.29645  Biso   1.000  H 
  H17      1.0000 0.83437  0.73200  0.28675  Biso   1.000  H 
  H18      1.0000 0.36055  0.15964  0.73739  Biso   1.000  H 
  H19      1.0000 0.63097  0.85477  0.72663  Biso   1.000  H 
  H20      1.0000 0.23629  0.60526  0.19560  Biso   1.000  H 
  H21      1.0000 0.36140  0.35707  0.27296  Biso   1.000  H 
  H22      1.0000 0.23343  0.91038  0.81125  Biso   1.000  H 
  H23      1.0000 0.49532  0.00767  0.72973  Biso   1.000  H 
  H24      1.0000 0.33221  0.78374  0.79372  Biso   1.000  H 
  H25      1.0000 0.25824  0.10465  0.69878  Biso   1.000  H 
  H26      1.0000 0.13111  0.85544  0.77241  Biso   1.000  H 
  H27      1.0000 0.75839  0.10501  0.80021  Biso   1.000  H 
  H28      1.0000 0.15947  0.23155  0.71394  Biso   1.000  H 
  O1       1.0000 0.54925  0.67096  0.81071  Biso   1.000  O 
  O2       1.0000 0.94377  0.17229  0.31227  Biso   1.000  O 
  O3       1.0000 0.49614  0.00787  0.87600  Biso   1.000  O 
  O4       1.0000 0.99601  0.00794  0.62332  Biso   1.000  O 
  O5       1.0000 0.99720  0.50721  0.37703  Biso   1.000  O 
  O6       1.0000 0.05946  0.33917  0.67825  Biso   1.000  O 
  O7       1.0000 0.93238  0.67657  0.67170  Biso   1.000  O 
  O8       1.0000 0.49724  0.50860  0.12224  Biso   1.000  O 
  O9       1.0000 0.94254  0.34430  0.68243  Biso   1.000  O 
  O10      1.0000 0.43241  0.67633  0.82743  Biso   1.000  O 
  O11      1.0000 0.43443  0.84160  0.17861  Biso   1.000  O 
  O12      1.0000 0.44363  0.17410  0.18615  Biso   1.000  O 
  O13      1.0000 0.06063  0.17398  0.32783  Biso   1.000  O 
  O14      1.0000 0.44255  0.34402  0.81664  Biso   1.000  O 
  O15      1.0000 0.56065  0.17572  0.17184  Biso   1.000  O 
  O16      1.0000 0.55137  0.84327  0.17976  Biso   1.000  O 
  O17      1.0000 0.05154  0.84144  0.32055  Biso   1.000  O 
  O18      1.0000 0.93441  0.83987  0.32032  Biso   1.000  O 
  O19      1.0000 0.55950  0.33883  0.82114  Biso   1.000  O 
  O20      1.0000 0.04927  0.67133  0.68866  Biso   1.000  O 
