data_image0
_cell_length_a       23.6567
_cell_length_b       6.70379
_cell_length_c       7.77894
_cell_angle_alpha    90.0511
_cell_angle_beta     90.0297
_cell_angle_gamma    89.8341

_symmetry_space_group_name_H-M    "P 1"
_symmetry_int_tables_number       1

loop_
  _symmetry_equiv_pos_as_xyz
  'x, y, z'

loop_
  _atom_site_label
  _atom_site_occupancy
  _atom_site_fract_x
  _atom_site_fract_y
  _atom_site_fract_z
  _atom_site_thermal_displace_type
  _atom_site_B_iso_or_equiv
  _atom_site_type_symbol
  Al1      1.0000 0.49408  0.75804  0.99880  Biso   1.000  Al
  Al2      1.0000 0.50070  0.25797  0.99909  Biso   1.000  Al
  Al3      1.0000 0.00070  0.25761  0.49984  Biso   1.000  Al
  Al4      1.0000 0.99414  0.75759  0.49993  Biso   1.000  Al
  C1       1.0000 0.33288  0.23330  0.26760  Biso   1.000  C 
  C2       1.0000 0.75764  0.91056  0.27240  Biso   1.000  C 
  C3       1.0000 0.07994  0.51487  0.67425  Biso   1.000  C 
  C4       1.0000 0.14066  0.53990  0.72068  Biso   1.000  C 
  C5       1.0000 0.16080  0.73199  0.76670  Biso   1.000  C 
  C6       1.0000 0.21751  0.76218  0.79422  Biso   1.000  C 
  C7       1.0000 0.23683  0.41004  0.72707  Biso   1.000  C 
  C8       1.0000 0.17805  0.38160  0.70411  Biso   1.000  C 
  C9       1.0000 0.91444  0.50044  0.67665  Biso   1.000  C 
  C10      1.0000 0.85358  0.47525  0.72160  Biso   1.000  C 
  C11      1.0000 0.81651  0.88262  0.29540  Biso   1.000  C 
  C12      1.0000 0.27613  0.26278  0.29518  Biso   1.000  C 
  C13      1.0000 0.75731  0.60485  0.72713  Biso   1.000  C 
  C14      1.0000 0.81611  0.63331  0.70440  Biso   1.000  C 
  C15      1.0000 0.77665  0.25286  0.79438  Biso   1.000  C 
  C16      1.0000 0.85364  0.04088  0.27785  Biso   1.000  C 
  C17      1.0000 0.77623  0.26229  0.20396  Biso   1.000  C 
  C18      1.0000 0.83299  0.23248  0.23136  Biso   1.000  C 
  C19      1.0000 0.91458  0.01627  0.32259  Biso   1.000  C 
  C20      1.0000 0.67820  0.38159  0.79531  Biso   1.000  C 
  C21      1.0000 0.31652  0.88322  0.20353  Biso   1.000  C 
  C22      1.0000 0.83336  0.28324  0.76744  Biso   1.000  C 
  C23      1.0000 0.41441  0.50045  0.82215  Biso   1.000  C 
  C24      1.0000 0.25767  0.91080  0.22669  Biso   1.000  C 
  C25      1.0000 0.66089  0.73182  0.73274  Biso   1.000  C 
  C26      1.0000 0.71758  0.76203  0.70505  Biso   1.000  C 
  C27      1.0000 0.27650  0.25276  0.70464  Biso   1.000  C 
  C28      1.0000 0.35359  0.04172  0.22098  Biso   1.000  C 
  C29      1.0000 0.41448  0.01722  0.17589  Biso   1.000  C 
  C30      1.0000 0.08024  0.99867  0.32637  Biso   1.000  C 
  C31      1.0000 0.16159  0.78261  0.23252  Biso   1.000  C 
  C32      1.0000 0.21834  0.75313  0.20432  Biso   1.000  C 
  C33      1.0000 0.23682  0.10515  0.27260  Biso   1.000  C 
  C34      1.0000 0.17800  0.13289  0.29614  Biso   1.000  C 
  C35      1.0000 0.67803  0.13304  0.20328  Biso   1.000  C 
  C36      1.0000 0.73686  0.10498  0.22665  Biso   1.000  C 
  C37      1.0000 0.14099  0.97422  0.27939  Biso   1.000  C 
  C38      1.0000 0.33321  0.28315  0.73163  Biso   1.000  C 
  C39      1.0000 0.35350  0.47516  0.77751  Biso   1.000  C 
  C40      1.0000 0.73696  0.41009  0.77218  Biso   1.000  C 
  C41      1.0000 0.66149  0.78287  0.26656  Biso   1.000  C 
  C42      1.0000 0.25722  0.60486  0.77215  Biso   1.000  C 
  C43      1.0000 0.64078  0.53981  0.77885  Biso   1.000  C 
  C44      1.0000 0.31603  0.63328  0.79477  Biso   1.000  C 
  C45      1.0000 0.64096  0.97460  0.21993  Biso   1.000  C 
  C46      1.0000 0.58019  0.99922  0.17304  Biso   1.000  C 
  C47      1.0000 0.58005  0.51477  0.82525  Biso   1.000  C 
  C48      1.0000 0.71825  0.75316  0.29466  Biso   1.000  C 
  H1       1.0000 0.36354  0.16176  0.71742  Biso   1.000  H 
  H2       1.0000 0.23278  0.90744  0.83597  Biso   1.000  H 
  H3       1.0000 0.63040  0.85292  0.71929  Biso   1.000  H 
  H4       1.0000 0.23394  0.60830  0.16180  Biso   1.000  H 
  H5       1.0000 0.36293  0.35496  0.28197  Biso   1.000  H 
  H6       1.0000 0.16192  0.23503  0.66864  Biso   1.000  H 
  H7       1.0000 0.48436  0.01167  0.77526  Biso   1.000  H 
  H8       1.0000 0.33214  0.77991  0.83028  Biso   1.000  H 
  H9       1.0000 0.26121  0.10763  0.66265  Biso   1.000  H 
  H10      1.0000 0.13033  0.85314  0.78022  Biso   1.000  H 
  H11      1.0000 0.76137  0.10774  0.83621  Biso   1.000  H 
  H12      1.0000 0.63129  0.66154  0.28025  Biso   1.000  H 
  H13      1.0000 0.16154  0.27922  0.33209  Biso   1.000  H 
  H14      1.0000 0.83289  0.73629  0.33148  Biso   1.000  H 
  H15      1.0000 0.48428  0.50500  0.22256  Biso   1.000  H 
  H16      1.0000 0.76064  0.40701  0.16141  Biso   1.000  H 
  H17      1.0000 0.83216  0.77992  0.66884  Biso   1.000  H 
  H18      1.0000 0.33294  0.73695  0.16740  Biso   1.000  H 
  H19      1.0000 0.86371  0.16187  0.78155  Biso   1.000  H 
  H20      1.0000 0.73281  0.90710  0.66303  Biso   1.000  H 
  H21      1.0000 0.66211  0.23498  0.83065  Biso   1.000  H 
  H22      1.0000 0.13141  0.66123  0.21868  Biso   1.000  H 
  H23      1.0000 0.26048  0.40747  0.33783  Biso   1.000  H 
  H24      1.0000 0.73378  0.60824  0.33696  Biso   1.000  H 
  H25      1.0000 0.98447  0.50402  0.27612  Biso   1.000  H 
  H26      1.0000 0.98424  0.01150  0.72340  Biso   1.000  H 
  H27      1.0000 0.66162  0.27943  0.16750  Biso   1.000  H 
  H28      1.0000 0.86309  0.35390  0.21700  Biso   1.000  H 
  O1       1.0000 0.05198  0.83862  0.34435  Biso   1.000  O 
  O2       1.0000 0.55192  0.83916  0.15478  Biso   1.000  O 
  O3       1.0000 0.56109  0.17466  0.14812  Biso   1.000  O 
  O4       1.0000 0.43301  0.67631  0.84822  Biso   1.000  O 
  O5       1.0000 0.44333  0.34045  0.83751  Biso   1.000  O 
  O6       1.0000 0.06116  0.17412  0.35155  Biso   1.000  O 
  O7       1.0000 0.44285  0.17764  0.15915  Biso   1.000  O 
  O8       1.0000 0.43362  0.84151  0.15089  Biso   1.000  O 
  O9       1.0000 0.56146  0.33936  0.85162  Biso   1.000  O 
  O10      1.0000 0.94329  0.34029  0.66100  Biso   1.000  O 
  O11      1.0000 0.55124  0.67449  0.84161  Biso   1.000  O 
  O12      1.0000 0.49655  0.50806  0.10384  Biso   1.000  O 
  O13      1.0000 0.93305  0.67619  0.65050  Biso   1.000  O 
  O14      1.0000 0.06133  0.33941  0.64801  Biso   1.000  O 
  O15      1.0000 0.99662  0.50741  0.39499  Biso   1.000  O 
  O16      1.0000 0.99651  0.00776  0.60469  Biso   1.000  O 
  O17      1.0000 0.49656  0.00804  0.89408  Biso   1.000  O 
  O18      1.0000 0.94303  0.17659  0.33908  Biso   1.000  O 
  O19      1.0000 0.93370  0.84058  0.34758  Biso   1.000  O 
  O20      1.0000 0.05118  0.67464  0.65768  Biso   1.000  O 
