data_image0
_cell_length_a       19.0906
_cell_length_b       6.77065
_cell_length_c       17.5349
_cell_angle_alpha    90.0069
_cell_angle_beta     89.9983
_cell_angle_gamma    89.9874

_symmetry_space_group_name_H-M    "P 1"
_symmetry_int_tables_number       1

loop_
  _symmetry_equiv_pos_as_xyz
  'x, y, z'

loop_
  _atom_site_label
  _atom_site_occupancy
  _atom_site_fract_x
  _atom_site_fract_y
  _atom_site_fract_z
  _atom_site_thermal_displace_type
  _atom_site_B_iso_or_equiv
  _atom_site_type_symbol
  Al1      1.0000 0.49188  0.75820  0.99930  Biso   1.000  Al
  Al2      1.0000 0.50342  0.25812  0.99956  Biso   1.000  Al
  Al3      1.0000 0.00337  0.25744  0.49954  Biso   1.000  Al
  Al4      1.0000 0.99199  0.75758  0.49952  Biso   1.000  Al
  C1       1.0000 0.29239  0.26209  0.74902  Biso   1.000  C 
  C2       1.0000 0.34831  0.03910  0.15606  Biso   1.000  C 
  C3       1.0000 0.40393  0.01600  0.09582  Biso   1.000  C 
  C4       1.0000 0.09123  0.99918  0.40608  Biso   1.000  C 
  C5       1.0000 0.15345  0.78911  0.30869  Biso   1.000  C 
  C6       1.0000 0.20301  0.76044  0.25267  Biso   1.000  C 
  C7       1.0000 0.24462  0.10033  0.27032  Biso   1.000  C 
  C8       1.0000 0.19192  0.12745  0.32657  Biso   1.000  C 
  C9       1.0000 0.69238  0.12733  0.17197  Biso   1.000  C 
  C10      1.0000 0.74513  0.10000  0.22817  Biso   1.000  C 
  C11      1.0000 0.34204  0.29125  0.80480  Biso   1.000  C 
  C12      1.0000 0.70338  0.75517  0.75323  Biso   1.000  C 
  C13      1.0000 0.34837  0.47634  0.84278  Biso   1.000  C 
  C14      1.0000 0.74532  0.41562  0.77117  Biso   1.000  C 
  C15      1.0000 0.65357  0.78943  0.19010  Biso   1.000  C 
  C16      1.0000 0.25046  0.60163  0.76690  Biso   1.000  C 
  C17      1.0000 0.64733  0.54068  0.84665  Biso   1.000  C 
  C18      1.0000 0.30309  0.62851  0.82332  Biso   1.000  C 
  C19      1.0000 0.64719  0.97511  0.15254  Biso   1.000  C 
  C20      1.0000 0.59140  0.51635  0.90629  Biso   1.000  C 
  C21      1.0000 0.70318  0.76053  0.24605  Biso   1.000  C 
  C22      1.0000 0.14695  0.97488  0.34618  Biso   1.000  C 
  C23      1.0000 0.65374  0.72639  0.80915  Biso   1.000  C 
  C24      1.0000 0.59133  0.99972  0.09278  Biso   1.000  C 
  C25      1.0000 0.40402  0.50003  0.90294  Biso   1.000  C 
  C26      1.0000 0.25048  0.91328  0.23195  Biso   1.000  C 
  C27      1.0000 0.34195  0.22396  0.19420  Biso   1.000  C 
  C28      1.0000 0.75080  0.91309  0.26667  Biso   1.000  C 
  C29      1.0000 0.09137  0.51558  0.59273  Biso   1.000  C 
  C30      1.0000 0.14705  0.53978  0.65265  Biso   1.000  C 
  C31      1.0000 0.20296  0.75437  0.74615  Biso   1.000  C 
  C32      1.0000 0.24471  0.41450  0.72857  Biso   1.000  C 
  C33      1.0000 0.19204  0.38724  0.67229  Biso   1.000  C 
  C34      1.0000 0.90429  0.49989  0.59634  Biso   1.000  C 
  C35      1.0000 0.84890  0.47687  0.65683  Biso   1.000  C 
  C36      1.0000 0.80336  0.88646  0.32320  Biso   1.000  C 
  C37      1.0000 0.15345  0.72558  0.69010  Biso   1.000  C 
  C38      1.0000 0.75098  0.60248  0.73265  Biso   1.000  C 
  C39      1.0000 0.80355  0.62903  0.67612  Biso   1.000  C 
  C40      1.0000 0.79316  0.26337  0.75101  Biso   1.000  C 
  C41      1.0000 0.84866  0.03860  0.34259  Biso   1.000  C 
  C42      1.0000 0.79294  0.25223  0.24841  Biso   1.000  C 
  C43      1.0000 0.84280  0.29229  0.69519  Biso   1.000  C 
  C44      1.0000 0.84254  0.22326  0.30427  Biso   1.000  C 
  C45      1.0000 0.90405  0.01548  0.40306  Biso   1.000  C 
  C46      1.0000 0.69251  0.38837  0.82731  Biso   1.000  C 
  C47      1.0000 0.30311  0.88672  0.17548  Biso   1.000  C 
  C48      1.0000 0.29227  0.25286  0.24997  Biso   1.000  C 
  H1       1.0000 0.80792  0.77094  0.64695  Biso   1.000  H 
  H2       1.0000 0.30770  0.74455  0.14653  Biso   1.000  H 
  H3       1.0000 0.87872  0.17403  0.67970  Biso   1.000  H 
  H4       1.0000 0.70679  0.89696  0.72384  Biso   1.000  H 
  H5       1.0000 0.68764  0.24596  0.85599  Biso   1.000  H 
  H6       1.0000 0.97195  0.01509  0.59427  Biso   1.000  H 
  H7       1.0000 0.28894  0.39438  0.27955  Biso   1.000  H 
  H8       1.0000 0.70653  0.61878  0.27548  Biso   1.000  H 
  H9       1.0000 0.97169  0.49994  0.40488  Biso   1.000  H 
  H10      1.0000 0.68755  0.26981  0.14331  Biso   1.000  H 
  H11      1.0000 0.87839  0.34154  0.31984  Biso   1.000  H 
  H12      1.0000 0.78978  0.39362  0.21874  Biso   1.000  H 
  H13      1.0000 0.11797  0.67065  0.32528  Biso   1.000  H 
  H14      1.0000 0.47211  0.50116  0.09432  Biso   1.000  H 
  H15      1.0000 0.61795  0.67113  0.17363  Biso   1.000  H 
  H16      1.0000 0.18694  0.26996  0.35520  Biso   1.000  H 
  H17      1.0000 0.80779  0.74445  0.35228  Biso   1.000  H 
  H18      1.0000 0.37778  0.17280  0.82055  Biso   1.000  H 
  H19      1.0000 0.61812  0.84470  0.82562  Biso   1.000  H 
  H20      1.0000 0.20646  0.61863  0.22330  Biso   1.000  H 
  H21      1.0000 0.37770  0.34242  0.17857  Biso   1.000  H 
  H22      1.0000 0.20630  0.89621  0.77553  Biso   1.000  H 
  H23      1.0000 0.47262  0.01623  0.90432  Biso   1.000  H 
  H24      1.0000 0.30761  0.77073  0.85223  Biso   1.000  H 
  H25      1.0000 0.28908  0.12046  0.71954  Biso   1.000  H 
  H26      1.0000 0.11789  0.84387  0.67347  Biso   1.000  H 
  H27      1.0000 0.79000  0.12204  0.78071  Biso   1.000  H 
  H28      1.0000 0.18714  0.24468  0.64370  Biso   1.000  H 
  O1       1.0000 0.56148  0.67516  0.92767  Biso   1.000  O 
  O2       1.0000 0.93329  0.17563  0.42474  Biso   1.000  O 
  O3       1.0000 0.49562  0.00853  0.95352  Biso   1.000  O 
  O4       1.0000 0.99562  0.00774  0.54544  Biso   1.000  O 
  O5       1.0000 0.99546  0.50720  0.45365  Biso   1.000  O 
  O6       1.0000 0.07674  0.34257  0.56845  Biso   1.000  O 
  O7       1.0000 0.91866  0.67294  0.57149  Biso   1.000  O 
  O8       1.0000 0.49549  0.50808  0.04532  Biso   1.000  O 
  O9       1.0000 0.93365  0.33972  0.57482  Biso   1.000  O 
  O10      1.0000 0.41840  0.67330  0.92754  Biso   1.000  O 
  O11      1.0000 0.41844  0.84299  0.07103  Biso   1.000  O 
  O12      1.0000 0.43341  0.17609  0.07444  Biso   1.000  O 
  O13      1.0000 0.07648  0.17223  0.43024  Biso   1.000  O 
  O14      1.0000 0.43358  0.34015  0.92445  Biso   1.000  O 
  O15      1.0000 0.57662  0.17291  0.06871  Biso   1.000  O 
  O16      1.0000 0.56163  0.84095  0.07103  Biso   1.000  O 
  O17      1.0000 0.06167  0.84022  0.42785  Biso   1.000  O 
  O18      1.0000 0.91856  0.84237  0.42776  Biso   1.000  O 
  O19      1.0000 0.57682  0.34338  0.93065  Biso   1.000  O 
  O20      1.0000 0.06171  0.67450  0.57107  Biso   1.000  O 
