data_image0
_cell_length_a       23.7185
_cell_length_b       6.72158
_cell_length_c       7.36307
_cell_angle_alpha    90.0468
_cell_angle_beta     89.9811
_cell_angle_gamma    89.7547

_symmetry_space_group_name_H-M    "P 1"
_symmetry_int_tables_number       1

loop_
  _symmetry_equiv_pos_as_xyz
  'x, y, z'

loop_
  _atom_site_label
  _atom_site_occupancy
  _atom_site_fract_x
  _atom_site_fract_y
  _atom_site_fract_z
  _atom_site_thermal_displace_type
  _atom_site_B_iso_or_equiv
  _atom_site_type_symbol
  Al1      1.0000 0.49385  0.75760  0.99883  Biso   1.000  Al
  Al2      1.0000 0.50045  0.25750  0.99893  Biso   1.000  Al
  Al3      1.0000 0.00039  0.25775  0.50031  Biso   1.000  Al
  Al4      1.0000 0.99391  0.75777  0.50056  Biso   1.000  Al
  C1       1.0000 0.33201  0.23445  0.26643  Biso   1.000  C 
  C2       1.0000 0.75777  0.90991  0.26869  Biso   1.000  C 
  C3       1.0000 0.07973  0.51447  0.68218  Biso   1.000  C 
  C4       1.0000 0.14069  0.54011  0.72515  Biso   1.000  C 
  C5       1.0000 0.16123  0.73331  0.76491  Biso   1.000  C 
  C6       1.0000 0.21795  0.76366  0.78895  Biso   1.000  C 
  C7       1.0000 0.23658  0.40965  0.73041  Biso   1.000  C 
  C8       1.0000 0.17779  0.38102  0.71118  Biso   1.000  C 
  C9       1.0000 0.91433  0.50129  0.68421  Biso   1.000  C 
  C10      1.0000 0.85328  0.47557  0.72594  Biso   1.000  C 
  C11      1.0000 0.81666  0.88215  0.28830  Biso   1.000  C 
  C12      1.0000 0.27521  0.26396  0.29086  Biso   1.000  C 
  C13      1.0000 0.75728  0.60555  0.73015  Biso   1.000  C 
  C14      1.0000 0.81608  0.63438  0.71132  Biso   1.000  C 
  C15      1.0000 0.77598  0.25175  0.78872  Biso   1.000  C 
  C16      1.0000 0.85329  0.04147  0.27357  Biso   1.000  C 
  C17      1.0000 0.77526  0.26354  0.20824  Biso   1.000  C 
  C18      1.0000 0.83206  0.23405  0.23281  Biso   1.000  C 
  C19      1.0000 0.91437  0.01673  0.31626  Biso   1.000  C 
  C20      1.0000 0.67778  0.38077  0.78770  Biso   1.000  C 
  C21      1.0000 0.31665  0.88247  0.21066  Biso   1.000  C 
  C22      1.0000 0.83270  0.28239  0.76536  Biso   1.000  C 
  C23      1.0000 0.41435  0.50079  0.81515  Biso   1.000  C 
  C24      1.0000 0.25776  0.91023  0.23015  Biso   1.000  C 
  C25      1.0000 0.66113  0.73292  0.73403  Biso   1.000  C 
  C26      1.0000 0.71784  0.76344  0.71006  Biso   1.000  C 
  C27      1.0000 0.27596  0.25162  0.71008  Biso   1.000  C 
  C28      1.0000 0.35327  0.04182  0.22562  Biso   1.000  C 
  C29      1.0000 0.41435  0.01692  0.18306  Biso   1.000  C 
  C30      1.0000 0.07989  0.99873  0.31874  Biso   1.000  C 
  C31      1.0000 0.16208  0.78139  0.23414  Biso   1.000  C 
  C32      1.0000 0.21888  0.75190  0.20934  Biso   1.000  C 
  C33      1.0000 0.23635  0.10561  0.26994  Biso   1.000  C 
  C34      1.0000 0.17748  0.13348  0.28970  Biso   1.000  C 
  C35      1.0000 0.67752  0.13325  0.20928  Biso   1.000  C 
  C36      1.0000 0.73639  0.10525  0.22899  Biso   1.000  C 
  C37      1.0000 0.14091  0.97406  0.27512  Biso   1.000  C 
  C38      1.0000 0.33268  0.28211  0.73359  Biso   1.000  C 
  C39      1.0000 0.35331  0.47523  0.77322  Biso   1.000  C 
  C40      1.0000 0.73656  0.40960  0.76847  Biso   1.000  C 
  C41      1.0000 0.66207  0.78124  0.26462  Biso   1.000  C 
  C42      1.0000 0.25735  0.60557  0.76882  Biso   1.000  C 
  C43      1.0000 0.64063  0.53971  0.77373  Biso   1.000  C 
  C44      1.0000 0.31616  0.63418  0.78777  Biso   1.000  C 
  C45      1.0000 0.64092  0.97390  0.22382  Biso   1.000  C 
  C46      1.0000 0.57990  0.99865  0.18036  Biso   1.000  C 
  C47      1.0000 0.57967  0.51395  0.81675  Biso   1.000  C 
  C48      1.0000 0.71886  0.75167  0.28936  Biso   1.000  C 
  H1       1.0000 0.36282  0.16026  0.72041  Biso   1.000  H 
  H2       1.0000 0.23342  0.90944  0.82866  Biso   1.000  H 
  H3       1.0000 0.63090  0.85455  0.72143  Biso   1.000  H 
  H4       1.0000 0.23484  0.60670  0.16858  Biso   1.000  H 
  H5       1.0000 0.36170  0.35667  0.27996  Biso   1.000  H 
  H6       1.0000 0.16141  0.23345  0.68059  Biso   1.000  H 
  H7       1.0000 0.48843  0.01012  0.75939  Biso   1.000  H 
  H8       1.0000 0.33249  0.78178  0.81846  Biso   1.000  H 
  H9       1.0000 0.26050  0.10590  0.67031  Biso   1.000  H 
  H10      1.0000 0.13104  0.85507  0.77761  Biso   1.000  H 
  H11      1.0000 0.76054  0.10603  0.82837  Biso   1.000  H 
  H12      1.0000 0.63225  0.65929  0.27765  Biso   1.000  H 
  H13      1.0000 0.16062  0.28068  0.32116  Biso   1.000  H 
  H14      1.0000 0.83348  0.73496  0.31982  Biso   1.000  H 
  H15      1.0000 0.48850  0.50564  0.23834  Biso   1.000  H 
  H16      1.0000 0.75934  0.40873  0.16748  Biso   1.000  H 
  H17      1.0000 0.83239  0.78203  0.68071  Biso   1.000  H 
  H18      1.0000 0.33350  0.73527  0.17911  Biso   1.000  H 
  H19      1.0000 0.86285  0.16063  0.77852  Biso   1.000  H 
  H20      1.0000 0.73328  0.90919  0.67040  Biso   1.000  H 
  H21      1.0000 0.66143  0.23316  0.81824  Biso   1.000  H 
  H22      1.0000 0.13228  0.65938  0.22107  Biso   1.000  H 
  H23      1.0000 0.25925  0.40913  0.33169  Biso   1.000  H 
  H24      1.0000 0.73477  0.60650  0.33007  Biso   1.000  H 
  H25      1.0000 0.98844  0.50545  0.26093  Biso   1.000  H 
  H26      1.0000 0.98832  0.01073  0.73983  Biso   1.000  H 
  H27      1.0000 0.66068  0.28048  0.17796  Biso   1.000  H 
  H28      1.0000 0.86177  0.35622  0.21947  Biso   1.000  H 
  O1       1.0000 0.05163  0.83909  0.33614  Biso   1.000  O 
  O2       1.0000 0.55160  0.83904  0.16304  Biso   1.000  O 
  O3       1.0000 0.56055  0.17379  0.15662  Biso   1.000  O 
  O4       1.0000 0.43295  0.67627  0.84088  Biso   1.000  O 
  O5       1.0000 0.44345  0.34147  0.82938  Biso   1.000  O 
  O6       1.0000 0.06051  0.17387  0.34249  Biso   1.000  O 
  O7       1.0000 0.44275  0.17667  0.16670  Biso   1.000  O 
  O8       1.0000 0.43366  0.84147  0.15908  Biso   1.000  O 
  O9       1.0000 0.56113  0.33869  0.84277  Biso   1.000  O 
  O10      1.0000 0.94343  0.34195  0.66987  Biso   1.000  O 
  O11      1.0000 0.55057  0.67294  0.83163  Biso   1.000  O 
  O12      1.0000 0.49668  0.50764  0.10952  Biso   1.000  O 
  O13      1.0000 0.93297  0.67671  0.65873  Biso   1.000  O 
  O14      1.0000 0.06111  0.33925  0.65635  Biso   1.000  O 
  O15      1.0000 0.99666  0.50771  0.38970  Biso   1.000  O 
  O16      1.0000 0.99658  0.00802  0.61105  Biso   1.000  O 
  O17      1.0000 0.49659  0.00764  0.88821  Biso   1.000  O 
  O18      1.0000 0.94276  0.17657  0.33250  Biso   1.000  O 
  O19      1.0000 0.93369  0.84141  0.34042  Biso   1.000  O 
  O20      1.0000 0.05069  0.67357  0.66729  Biso   1.000  O 
