data_image0
_cell_length_a       23.4547
_cell_length_b       6.69397
_cell_length_c       8.77407
_cell_angle_alpha    90.1103
_cell_angle_beta     90.0595
_cell_angle_gamma    89.9635

_symmetry_space_group_name_H-M    "P 1"
_symmetry_int_tables_number       1

loop_
  _symmetry_equiv_pos_as_xyz
  'x, y, z'

loop_
  _atom_site_label
  _atom_site_occupancy
  _atom_site_fract_x
  _atom_site_fract_y
  _atom_site_fract_z
  _atom_site_thermal_displace_type
  _atom_site_B_iso_or_equiv
  _atom_site_type_symbol
  Al1      1.0000 0.49332  0.75809  0.99825  Biso   1.000  Al
  Al2      1.0000 0.50013  0.25799  0.99806  Biso   1.000  Al
  Al3      1.0000 0.00024  0.25762  0.50085  Biso   1.000  Al
  Al4      1.0000 0.99343  0.75766  0.50050  Biso   1.000  Al
  C1       1.0000 0.33536  0.22850  0.26890  Biso   1.000  C 
  C2       1.0000 0.75730  0.91251  0.27303  Biso   1.000  C 
  C3       1.0000 0.07866  0.51659  0.66385  Biso   1.000  C 
  C4       1.0000 0.13893  0.54053  0.71539  Biso   1.000  C 
  C5       1.0000 0.15799  0.72850  0.77116  Biso   1.000  C 
  C6       1.0000 0.21459  0.75749  0.80580  Biso   1.000  C 
  C7       1.0000 0.23602  0.41234  0.72655  Biso   1.000  C 
  C8       1.0000 0.17727  0.38504  0.69602  Biso   1.000  C 
  C9       1.0000 0.91295  0.49975  0.65737  Biso   1.000  C 
  C10      1.0000 0.85246  0.47566  0.70672  Biso   1.000  C 
  C11      1.0000 0.81600  0.88505  0.30447  Biso   1.000  C 
  C12      1.0000 0.27887  0.25713  0.30488  Biso   1.000  C 
  C13      1.0000 0.75524  0.60297  0.71710  Biso   1.000  C 
  C14      1.0000 0.81397  0.63059  0.68675  Biso   1.000  C 
  C15      1.0000 0.77691  0.25841  0.79647  Biso   1.000  C 
  C16      1.0000 0.85444  0.04013  0.28552  Biso   1.000  C 
  C17      1.0000 0.77891  0.25698  0.19398  Biso   1.000  C 
  C18      1.0000 0.83545  0.22784  0.22942  Biso   1.000  C 
  C19      1.0000 0.91475  0.01628  0.33709  Biso   1.000  C 
  C20      1.0000 0.67748  0.38512  0.80374  Biso   1.000  C 
  C21      1.0000 0.31606  0.88513  0.19381  Biso   1.000  C 
  C22      1.0000 0.83348  0.28777  0.76218  Biso   1.000  C 
  C23      1.0000 0.41298  0.49923  0.84110  Biso   1.000  C 
  C24      1.0000 0.25741  0.91206  0.22583  Biso   1.000  C 
  C25      1.0000 0.65791  0.72793  0.72835  Biso   1.000  C 
  C26      1.0000 0.71446  0.75717  0.69360  Biso   1.000  C 
  C27      1.0000 0.27665  0.25767  0.70291  Biso   1.000  C 
  C28      1.0000 0.35438  0.04074  0.21259  Biso   1.000  C 
  C29      1.0000 0.41461  0.01713  0.16080  Biso   1.000  C 
  C30      1.0000 0.08073  0.99832  0.34453  Biso   1.000  C 
  C31      1.0000 0.16024  0.78613  0.23871  Biso   1.000  C 
  C32      1.0000 0.21676  0.75724  0.20325  Biso   1.000  C 
  C33      1.0000 0.23823  0.10235  0.28218  Biso   1.000  C 
  C34      1.0000 0.17954  0.12950  0.31371  Biso   1.000  C 
  C35      1.0000 0.67944  0.13037  0.18597  Biso   1.000  C 
  C36      1.0000 0.73817  0.10276  0.21698  Biso   1.000  C 
  C37      1.0000 0.14117  0.97415  0.29448  Biso   1.000  C 
  C38      1.0000 0.33329  0.28686  0.73689  Biso   1.000  C 
  C39      1.0000 0.35243  0.47504  0.79204  Biso   1.000  C 
  C40      1.0000 0.73617  0.41267  0.77296  Biso   1.000  C 
  C41      1.0000 0.66001  0.78755  0.26107  Biso   1.000  C 
  C42      1.0000 0.25526  0.60286  0.78218  Biso   1.000  C 
  C43      1.0000 0.63901  0.54017  0.78426  Biso   1.000  C 
  C44      1.0000 0.31406  0.63034  0.81209  Biso   1.000  C 
  C45      1.0000 0.64099  0.97544  0.20544  Biso   1.000  C 
  C46      1.0000 0.58051  0.99962  0.15546  Biso   1.000  C 
  C47      1.0000 0.57876  0.51620  0.83561  Biso   1.000  C 
  C48      1.0000 0.71657  0.75822  0.29599  Biso   1.000  C 
  H1       1.0000 0.36435  0.16728  0.72237  Biso   1.000  H 
  H2       1.0000 0.22916  0.90012  0.85185  Biso   1.000  H 
  H3       1.0000 0.62678  0.84731  0.71424  Biso   1.000  H 
  H4       1.0000 0.23125  0.61460  0.15702  Biso   1.000  H 
  H5       1.0000 0.36635  0.34834  0.28247  Biso   1.000  H 
  H6       1.0000 0.16201  0.24166  0.65314  Biso   1.000  H 
  H7       1.0000 0.49566  0.00756  0.79576  Biso   1.000  H 
  H8       1.0000 0.32937  0.77387  0.85456  Biso   1.000  H 
  H9       1.0000 0.26203  0.11498  0.65714  Biso   1.000  H 
  H10      1.0000 0.12693  0.84818  0.78523  Biso   1.000  H 
  H11      1.0000 0.76247  0.11588  0.84243  Biso   1.000  H 
  H12      1.0000 0.62891  0.66821  0.27509  Biso   1.000  H 
  H13      1.0000 0.16431  0.27293  0.35667  Biso   1.000  H 
  H14      1.0000 0.83114  0.74181  0.34770  Biso   1.000  H 
  H15      1.0000 0.49697  0.50832  0.20065  Biso   1.000  H 
  H16      1.0000 0.76448  0.39945  0.14768  Biso   1.000  H 
  H17      1.0000 0.82913  0.77394  0.64402  Biso   1.000  H 
  H18      1.0000 0.33126  0.74182  0.15055  Biso   1.000  H 
  H19      1.0000 0.86462  0.16850  0.77660  Biso   1.000  H 
  H20      1.0000 0.72888  0.89967  0.64748  Biso   1.000  H 
  H21      1.0000 0.66235  0.24192  0.84681  Biso   1.000  H 
  H22      1.0000 0.12921  0.66640  0.22491  Biso   1.000  H 
  H23      1.0000 0.26440  0.39962  0.35145  Biso   1.000  H 
  H24      1.0000 0.73103  0.61564  0.34206  Biso   1.000  H 
  H25      1.0000 0.99524  0.50631  0.29829  Biso   1.000  H 
  H26      1.0000 0.99291  0.00888  0.70278  Biso   1.000  H 
  H27      1.0000 0.66426  0.27374  0.14315  Biso   1.000  H 
  H28      1.0000 0.86651  0.34733  0.21561  Biso   1.000  H 
  O1       1.0000 0.05228  0.83778  0.36183  Biso   1.000  O 
  O2       1.0000 0.55202  0.83904  0.13815  Biso   1.000  O 
  O3       1.0000 0.56197  0.17521  0.12904  Biso   1.000  O 
  O4       1.0000 0.43150  0.67497  0.86737  Biso   1.000  O 
  O5       1.0000 0.44155  0.33870  0.85795  Biso   1.000  O 
  O6       1.0000 0.06216  0.17401  0.37090  Biso   1.000  O 
  O7       1.0000 0.44292  0.17781  0.14225  Biso   1.000  O 
  O8       1.0000 0.43312  0.84148  0.13391  Biso   1.000  O 
  O9       1.0000 0.56041  0.34064  0.86254  Biso   1.000  O 
  O10      1.0000 0.94150  0.33911  0.64051  Biso   1.000  O 
  O11      1.0000 0.55031  0.67682  0.85394  Biso   1.000  O 
  O12      1.0000 0.49729  0.50823  0.09037  Biso   1.000  O 
  O13      1.0000 0.93139  0.67537  0.63084  Biso   1.000  O 
  O14      1.0000 0.06026  0.34096  0.63687  Biso   1.000  O 
  O15      1.0000 0.99732  0.50739  0.40843  Biso   1.000  O 
  O16      1.0000 0.99601  0.00793  0.59281  Biso   1.000  O 
  O17      1.0000 0.49618  0.00783  0.90603  Biso   1.000  O 
  O18      1.0000 0.94312  0.17698  0.35564  Biso   1.000  O 
  O19      1.0000 0.93322  0.84065  0.36385  Biso   1.000  O 
  O20      1.0000 0.05023  0.67709  0.64531  Biso   1.000  O 
