data_image0
_cell_length_a       19.8718
_cell_length_b       6.69357
_cell_length_c       16.4396
_cell_angle_alpha    89.9206
_cell_angle_beta     89.9979
_cell_angle_gamma    90.0111

_symmetry_space_group_name_H-M    "P 1"
_symmetry_int_tables_number       1

loop_
  _symmetry_equiv_pos_as_xyz
  'x, y, z'

loop_
  _atom_site_label
  _atom_site_occupancy
  _atom_site_fract_x
  _atom_site_fract_y
  _atom_site_fract_z
  _atom_site_thermal_displace_type
  _atom_site_B_iso_or_equiv
  _atom_site_type_symbol
  Al1      1.0000 0.49218  0.75776  0.99945  Biso   1.000  Al
  Al2      1.0000 0.50363  0.25771  0.99948  Biso   1.000  Al
  Al3      1.0000 0.00363  0.25758  0.49947  Biso   1.000  Al
  Al4      1.0000 0.99228  0.75767  0.49948  Biso   1.000  Al
  C1       1.0000 0.34191  0.22734  0.19901  Biso   1.000  C 
  C2       1.0000 0.75165  0.91236  0.26820  Biso   1.000  C 
  C3       1.0000 0.08906  0.51608  0.59673  Biso   1.000  C 
  C4       1.0000 0.14515  0.54095  0.65658  Biso   1.000  C 
  C5       1.0000 0.15302  0.72819  0.69634  Biso   1.000  C 
  C6       1.0000 0.20399  0.75661  0.75181  Biso   1.000  C 
  C7       1.0000 0.24343  0.41342  0.72824  Biso   1.000  C 
  C8       1.0000 0.18945  0.38644  0.67297  Biso   1.000  C 
  C9       1.0000 0.90708  0.49893  0.60054  Biso   1.000  C 
  C10      1.0000 0.85090  0.47506  0.66051  Biso   1.000  C 
  C11      1.0000 0.80578  0.88590  0.32340  Biso   1.000  C 
  C12      1.0000 0.29056  0.25655  0.25379  Biso   1.000  C 
  C13      1.0000 0.75197  0.60282  0.73119  Biso   1.000  C 
  C14      1.0000 0.80609  0.62900  0.67594  Biso   1.000  C 
  C15      1.0000 0.79179  0.26051  0.75636  Biso   1.000  C 
  C16      1.0000 0.85067  0.03968  0.33884  Biso   1.000  C 
  C17      1.0000 0.79160  0.25459  0.24307  Biso   1.000  C 
  C18      1.0000 0.84291  0.22577  0.29797  Biso   1.000  C 
  C19      1.0000 0.90685  0.01574  0.39877  Biso   1.000  C 
  C20      1.0000 0.69018  0.38762  0.82735  Biso   1.000  C 
  C21      1.0000 0.30529  0.88651  0.17505  Biso   1.000  C 
  C22      1.0000 0.84309  0.28903  0.70142  Biso   1.000  C 
  C23      1.0000 0.40661  0.49957  0.89918  Biso   1.000  C 
  C24      1.0000 0.25106  0.91345  0.23006  Biso   1.000  C 
  C25      1.0000 0.65359  0.72890  0.80290  Biso   1.000  C 
  C26      1.0000 0.70481  0.75726  0.74772  Biso   1.000  C 
  C27      1.0000 0.29053  0.25912  0.74509  Biso   1.000  C 
  C28      1.0000 0.35005  0.04040  0.15911  Biso   1.000  C 
  C29      1.0000 0.40666  0.01575  0.09978  Biso   1.000  C 
  C30      1.0000 0.08876  0.00004  0.40180  Biso   1.000  C 
  C31      1.0000 0.15279  0.78781  0.30231  Biso   1.000  C 
  C32      1.0000 0.20391  0.75911  0.24709  Biso   1.000  C 
  C33      1.0000 0.24340  0.10233  0.27059  Biso   1.000  C 
  C34      1.0000 0.18929  0.12952  0.32566  Biso   1.000  C 
  C35      1.0000 0.68999  0.12773  0.17202  Biso   1.000  C 
  C36      1.0000 0.74418  0.10070  0.22698  Biso   1.000  C 
  C37      1.0000 0.14489  0.97513  0.34199  Biso   1.000  C 
  C38      1.0000 0.34182  0.28816  0.79995  Biso   1.000  C 
  C39      1.0000 0.34997  0.47502  0.83992  Biso   1.000  C 
  C40      1.0000 0.74443  0.41455  0.77243  Biso   1.000  C 
  C41      1.0000 0.65320  0.78662  0.19652  Biso   1.000  C 
  C42      1.0000 0.25104  0.60214  0.76892  Biso   1.000  C 
  C43      1.0000 0.64558  0.54179  0.84293  Biso   1.000  C 
  C44      1.0000 0.30521  0.62891  0.82402  Biso   1.000  C 
  C45      1.0000 0.64534  0.97366  0.15638  Biso   1.000  C 
  C46      1.0000 0.58893  0.99895  0.09696  Biso   1.000  C 
  C47      1.0000 0.58905  0.51659  0.90219  Biso   1.000  C 
  C48      1.0000 0.70438  0.75811  0.25171  Biso   1.000  C 
  H1       1.0000 0.37735  0.16888  0.81339  Biso   1.000  H 
  H2       1.0000 0.20905  0.89910  0.78340  Biso   1.000  H 
  H3       1.0000 0.61807  0.84803  0.81684  Biso   1.000  H 
  H4       1.0000 0.20902  0.61648  0.21561  Biso   1.000  H 
  H5       1.0000 0.37744  0.34666  0.18554  Biso   1.000  H 
  H6       1.0000 0.18292  0.24313  0.64239  Biso   1.000  H 
  H7       1.0000 0.47354  0.01628  0.89791  Biso   1.000  H 
  H8       1.0000 0.31150  0.77199  0.85487  Biso   1.000  H 
  H9       1.0000 0.28539  0.11656  0.71356  Biso   1.000  H 
  H10      1.0000 0.11763  0.84739  0.68189  Biso   1.000  H 
  H11      1.0000 0.78676  0.11850  0.78849  Biso   1.000  H 
  H12      1.0000 0.61759  0.66766  0.18262  Biso   1.000  H 
  H13      1.0000 0.18271  0.27292  0.35614  Biso   1.000  H 
  H14      1.0000 0.81186  0.74328  0.35481  Biso   1.000  H 
  H15      1.0000 0.47360  0.49933  0.10108  Biso   1.000  H 
  H16      1.0000 0.78664  0.39669  0.21100  Biso   1.000  H 
  H17      1.0000 0.81222  0.77153  0.64445  Biso   1.000  H 
  H18      1.0000 0.31158  0.74339  0.14424  Biso   1.000  H 
  H19      1.0000 0.87883  0.16993  0.68867  Biso   1.000  H 
  H20      1.0000 0.70998  0.89965  0.71589  Biso   1.000  H 
  H21      1.0000 0.68361  0.24453  0.85825  Biso   1.000  H 
  H22      1.0000 0.11731  0.66875  0.31666  Biso   1.000  H 
  H23      1.0000 0.28538  0.39918  0.28523  Biso   1.000  H 
  H24      1.0000 0.70945  0.61576  0.28356  Biso   1.000  H 
  H25      1.0000 0.97121  0.49914  0.39917  Biso   1.000  H 
  H26      1.0000 0.97127  0.01604  0.59980  Biso   1.000  H 
  H27      1.0000 0.68353  0.27078  0.14106  Biso   1.000  H 
  H28      1.0000 0.87870  0.34476  0.31074  Biso   1.000  H 
  O1       1.0000 0.05891  0.84012  0.42305  Biso   1.000  O 
  O2       1.0000 0.55900  0.83918  0.07585  Biso   1.000  O 
  O3       1.0000 0.57424  0.17424  0.07217  Biso   1.000  O 
  O4       1.0000 0.42140  0.67495  0.92410  Biso   1.000  O 
  O5       1.0000 0.43646  0.33871  0.92004  Biso   1.000  O 
  O6       1.0000 0.07421  0.17505  0.42684  Biso   1.000  O 
  O7       1.0000 0.43667  0.17654  0.07913  Biso   1.000  O 
  O8       1.0000 0.42122  0.84047  0.07459  Biso   1.000  O 
  O9       1.0000 0.57418  0.34128  0.92682  Biso   1.000  O 
  O10      1.0000 0.93648  0.33773  0.57936  Biso   1.000  O 
  O11      1.0000 0.55920  0.67644  0.92329  Biso   1.000  O 
  O12      1.0000 0.49604  0.50734  0.04886  Biso   1.000  O 
  O13      1.0000 0.92184  0.67427  0.57534  Biso   1.000  O 
  O14      1.0000 0.07410  0.34095  0.57220  Biso   1.000  O 
  O15      1.0000 0.99563  0.50749  0.45008  Biso   1.000  O 
  O16      1.0000 0.99579  0.00776  0.54896  Biso   1.000  O 
  O17      1.0000 0.49607  0.00814  0.95006  Biso   1.000  O 
  O18      1.0000 0.93661  0.17674  0.41953  Biso   1.000  O 
  O19      1.0000 0.92127  0.84055  0.42441  Biso   1.000  O 
  O20      1.0000 0.05962  0.67627  0.57505  Biso   1.000  O 
