data_image0
_cell_length_a       23.7669
_cell_length_b       6.75448
_cell_length_c       6.9437
_cell_angle_alpha    90.1952
_cell_angle_beta     90.0264
_cell_angle_gamma    89.8578

_symmetry_space_group_name_H-M    "P 1"
_symmetry_int_tables_number       1

loop_
  _symmetry_equiv_pos_as_xyz
  'x, y, z'

loop_
  _atom_site_label
  _atom_site_occupancy
  _atom_site_fract_x
  _atom_site_fract_y
  _atom_site_fract_z
  _atom_site_thermal_displace_type
  _atom_site_B_iso_or_equiv
  _atom_site_type_symbol
  Al1      1.0000 0.49358  0.75823  0.99908  Biso   1.000  Al
  Al2      1.0000 0.49986  0.25821  0.99901  Biso   1.000  Al
  Al3      1.0000 0.99993  0.25744  0.50017  Biso   1.000  Al
  Al4      1.0000 0.99364  0.75748  0.50017  Biso   1.000  Al
  C1       1.0000 0.27423  0.25109  0.72262  Biso   1.000  C 
  C2       1.0000 0.35368  0.04165  0.23377  Biso   1.000  C 
  C3       1.0000 0.41487  0.01660  0.19358  Biso   1.000  C 
  C4       1.0000 0.08020  0.99920  0.31305  Biso   1.000  C 
  C5       1.0000 0.16299  0.78072  0.24215  Biso   1.000  C 
  C6       1.0000 0.21980  0.75121  0.22160  Biso   1.000  C 
  C7       1.0000 0.23674  0.10584  0.26984  Biso   1.000  C 
  C8       1.0000 0.17785  0.13382  0.28493  Biso   1.000  C 
  C9       1.0000 0.67798  0.13449  0.21455  Biso   1.000  C 
  C10      1.0000 0.73685  0.10571  0.22939  Biso   1.000  C 
  C11      1.0000 0.33099  0.28149  0.74201  Biso   1.000  C 
  C12      1.0000 0.71732  0.76359  0.71252  Biso   1.000  C 
  C13      1.0000 0.35209  0.47522  0.77306  Biso   1.000  C 
  C14      1.0000 0.73526  0.40940  0.75949  Biso   1.000  C 
  C15      1.0000 0.66275  0.78187  0.25699  Biso   1.000  C 
  C16      1.0000 0.25651  0.60581  0.76907  Biso   1.000  C 
  C17      1.0000 0.63964  0.53945  0.76445  Biso   1.000  C 
  C18      1.0000 0.31535  0.63458  0.78337  Biso   1.000  C 
  C19      1.0000 0.64143  0.97530  0.22510  Biso   1.000  C 
  C20      1.0000 0.57851  0.51377  0.80461  Biso   1.000  C 
  C21      1.0000 0.71953  0.75158  0.27711  Biso   1.000  C 
  C22      1.0000 0.14148  0.97403  0.27440  Biso   1.000  C 
  C23      1.0000 0.66060  0.73297  0.73239  Biso   1.000  C 
  C24      1.0000 0.58013  0.00091  0.18673  Biso   1.000  C 
  C25      1.0000 0.41337  0.50117  0.81107  Biso   1.000  C 
  C26      1.0000 0.25843  0.90987  0.23893  Biso   1.000  C 
  C27      1.0000 0.33217  0.23490  0.26656  Biso   1.000  C 
  C28      1.0000 0.75834  0.90959  0.25995  Biso   1.000  C 
  C29      1.0000 0.07853  0.51432  0.69468  Biso   1.000  C 
  C30      1.0000 0.13968  0.54003  0.73468  Biso   1.000  C 
  C31      1.0000 0.21750  0.76401  0.78639  Biso   1.000  C 
  C32      1.0000 0.23525  0.40939  0.73950  Biso   1.000  C 
  C33      1.0000 0.17642  0.38063  0.72465  Biso   1.000  C 
  C34      1.0000 0.91335  0.50165  0.68787  Biso   1.000  C 
  C35      1.0000 0.85208  0.47576  0.72575  Biso   1.000  C 
  C36      1.0000 0.81720  0.88078  0.27532  Biso   1.000  C 
  C37      1.0000 0.16076  0.73366  0.76656  Biso   1.000  C 
  C38      1.0000 0.75643  0.60575  0.72978  Biso   1.000  C 
  C39      1.0000 0.81525  0.63480  0.71538  Biso   1.000  C 
  C40      1.0000 0.77434  0.25148  0.77634  Biso   1.000  C 
  C41      1.0000 0.85376  0.03994  0.26490  Biso   1.000  C 
  C42      1.0000 0.77568  0.26361  0.21187  Biso   1.000  C 
  C43      1.0000 0.83107  0.28215  0.75690  Biso   1.000  C 
  C44      1.0000 0.83245  0.23328  0.23227  Biso   1.000  C 
  C45      1.0000 0.91495  0.01460  0.30506  Biso   1.000  C 
  C46      1.0000 0.67646  0.38038  0.77452  Biso   1.000  C 
  C47      1.0000 0.31731  0.88187  0.22336  Biso   1.000  C 
  C48      1.0000 0.27538  0.26445  0.28739  Biso   1.000  C 
  H1       1.0000 0.83193  0.78289  0.69147  Biso   1.000  H 
  H2       1.0000 0.33438  0.73408  0.19827  Biso   1.000  H 
  H3       1.0000 0.86095  0.16028  0.76799  Biso   1.000  H 
  H4       1.0000 0.73302  0.90948  0.67590  Biso   1.000  H 
  H5       1.0000 0.65979  0.23236  0.79897  Biso   1.000  H 
  H6       1.0000 0.99317  0.00933  0.75646  Biso   1.000  H 
  H7       1.0000 0.25927  0.41000  0.32500  Biso   1.000  H 
  H8       1.0000 0.73551  0.60590  0.31402  Biso   1.000  H 
  H9       1.0000 0.99570  0.50630  0.24358  Biso   1.000  H 
  H10      1.0000 0.66104  0.28243  0.19018  Biso   1.000  H 
  H11      1.0000 0.86214  0.35517  0.22108  Biso   1.000  H 
  H12      1.0000 0.75974  0.40929  0.17469  Biso   1.000  H 
  H13      1.0000 0.13343  0.65832  0.23093  Biso   1.000  H 
  H14      1.0000 0.49667  0.50899  0.25569  Biso   1.000  H 
  H15      1.0000 0.63306  0.65993  0.26815  Biso   1.000  H 
  H16      1.0000 0.16075  0.28169  0.30944  Biso   1.000  H 
  H17      1.0000 0.83410  0.73285  0.30022  Biso   1.000  H 
  H18      1.0000 0.36081  0.15937  0.73092  Biso   1.000  H 
  H19      1.0000 0.63070  0.85479  0.72131  Biso   1.000  H 
  H20      1.0000 0.23594  0.60565  0.18412  Biso   1.000  H 
  H21      1.0000 0.36173  0.35730  0.27770  Biso   1.000  H 
  H22      1.0000 0.23330  0.90999  0.82311  Biso   1.000  H 
  H23      1.0000 0.49526  0.00767  0.74246  Biso   1.000  H 
  H24      1.0000 0.33213  0.78271  0.80727  Biso   1.000  H 
  H25      1.0000 0.25842  0.10500  0.68647  Biso   1.000  H 
  H26      1.0000 0.13091  0.85571  0.77769  Biso   1.000  H 
  H27      1.0000 0.75862  0.10552  0.81246  Biso   1.000  H 
  H28      1.0000 0.15966  0.23254  0.70032  Biso   1.000  H 
  O1       1.0000 0.54950  0.67228  0.81919  Biso   1.000  O 
  O2       1.0000 0.94357  0.17341  0.32067  Biso   1.000  O 
  O3       1.0000 0.49616  0.00785  0.88189  Biso   1.000  O 
  O4       1.0000 0.99606  0.00791  0.61736  Biso   1.000  O 
  O5       1.0000 0.99721  0.50713  0.38295  Biso   1.000  O 
  O6       1.0000 0.05963  0.33967  0.67007  Biso   1.000  O 
  O7       1.0000 0.93226  0.67627  0.66399  Biso   1.000  O 
  O8       1.0000 0.49723  0.50861  0.11625  Biso   1.000  O 
  O9       1.0000 0.94240  0.34312  0.67460  Biso   1.000  O 
  O10      1.0000 0.43230  0.67592  0.83500  Biso   1.000  O 
  O11      1.0000 0.43421  0.84201  0.17010  Biso   1.000  O 
  O12      1.0000 0.44343  0.17540  0.17786  Biso   1.000  O 
  O13      1.0000 0.06082  0.17381  0.33578  Biso   1.000  O 
  O14      1.0000 0.44239  0.34270  0.82447  Biso   1.000  O 
  O15      1.0000 0.56084  0.17547  0.16391  Biso   1.000  O 
  O16      1.0000 0.55146  0.84219  0.17213  Biso   1.000  O 
  O17      1.0000 0.05163  0.84043  0.32795  Biso   1.000  O 
  O18      1.0000 0.93420  0.84007  0.32875  Biso   1.000  O 
  O19      1.0000 0.55967  0.33925  0.82942  Biso   1.000  O 
  O20      1.0000 0.04956  0.67279  0.68001  Biso   1.000  O 
