data_image0
_cell_length_a       22.3205
_cell_length_b       6.66694
_cell_length_c       12.2672
_cell_angle_alpha    89.9607
_cell_angle_beta     90.0011
_cell_angle_gamma    89.9599

_symmetry_space_group_name_H-M    "P 1"
_symmetry_int_tables_number       1

loop_
  _symmetry_equiv_pos_as_xyz
  'x, y, z'

loop_
  _atom_site_label
  _atom_site_occupancy
  _atom_site_fract_x
  _atom_site_fract_y
  _atom_site_fract_z
  _atom_site_thermal_displace_type
  _atom_site_B_iso_or_equiv
  _atom_site_type_symbol
  Al1      1.0000 0.49324  0.75753  0.99939  Biso   1.000  Al
  Al2      1.0000 0.50182  0.25757  0.99945  Biso   1.000  Al
  Al3      1.0000 0.00182  0.25806  0.49958  Biso   1.000  Al
  Al4      1.0000 0.99329  0.75791  0.49972  Biso   1.000  Al
  C1       1.0000 0.33914  0.22730  0.22910  Biso   1.000  C 
  C2       1.0000 0.75491  0.91238  0.27197  Biso   1.000  C 
  C3       1.0000 0.08250  0.51652  0.61993  Biso   1.000  C 
  C4       1.0000 0.14139  0.54141  0.67587  Biso   1.000  C 
  C5       1.0000 0.15586  0.72912  0.72403  Biso   1.000  C 
  C6       1.0000 0.21082  0.75777  0.77229  Biso   1.000  C 
  C7       1.0000 0.24025  0.41379  0.72253  Biso   1.000  C 
  C8       1.0000 0.18276  0.38662  0.67614  Biso   1.000  C 
  C9       1.0000 0.91251  0.49957  0.62384  Biso   1.000  C 
  C10      1.0000 0.85368  0.47533  0.68028  Biso   1.000  C 
  C11      1.0000 0.81235  0.88610  0.31890  Biso   1.000  C 
  C12      1.0000 0.28417  0.25595  0.27726  Biso   1.000  C 
  C13      1.0000 0.75472  0.60312  0.72712  Biso   1.000  C 
  C14      1.0000 0.81216  0.62987  0.68033  Biso   1.000  C 
  C15      1.0000 0.78422  0.25938  0.77743  Biso   1.000  C 
  C16      1.0000 0.85372  0.04091  0.31892  Biso   1.000  C 
  C17      1.0000 0.78412  0.25615  0.22145  Biso   1.000  C 
  C18      1.0000 0.83908  0.22781  0.26973  Biso   1.000  C 
  C19      1.0000 0.91254  0.01707  0.37546  Biso   1.000  C 
  C20      1.0000 0.68279  0.38657  0.82320  Biso   1.000  C 
  C21      1.0000 0.31227  0.88574  0.18015  Biso   1.000  C 
  C22      1.0000 0.83919  0.28823  0.72930  Biso   1.000  C 
  C23      1.0000 0.41252  0.49937  0.87523  Biso   1.000  C 
  C24      1.0000 0.25482  0.91233  0.22701  Biso   1.000  C 
  C25      1.0000 0.65588  0.72912  0.77511  Biso   1.000  C 
  C26      1.0000 0.71083  0.75783  0.72682  Biso   1.000  C 
  C27      1.0000 0.28420  0.25938  0.72188  Biso   1.000  C 
  C28      1.0000 0.35371  0.04033  0.18006  Biso   1.000  C 
  C29      1.0000 0.41253  0.01621  0.12361  Biso   1.000  C 
  C30      1.0000 0.08259  0.99868  0.37940  Biso   1.000  C 
  C31      1.0000 0.15606  0.78614  0.27523  Biso   1.000  C 
  C32      1.0000 0.21101  0.75760  0.22686  Biso   1.000  C 
  C33      1.0000 0.24030  0.10155  0.27663  Biso   1.000  C 
  C34      1.0000 0.18282  0.12862  0.32313  Biso   1.000  C 
  C35      1.0000 0.68281  0.12827  0.17564  Biso   1.000  C 
  C36      1.0000 0.74031  0.10149  0.22218  Biso   1.000  C 
  C37      1.0000 0.14150  0.97383  0.32344  Biso   1.000  C 
  C38      1.0000 0.33917  0.28816  0.76995  Biso   1.000  C 
  C39      1.0000 0.35368  0.47523  0.81882  Biso   1.000  C 
  C40      1.0000 0.74027  0.41376  0.77674  Biso   1.000  C 
  C41      1.0000 0.65620  0.78567  0.22382  Biso   1.000  C 
  C42      1.0000 0.25471  0.60308  0.77204  Biso   1.000  C 
  C43      1.0000 0.64140  0.54136  0.82336  Biso   1.000  C 
  C44      1.0000 0.31218  0.62982  0.81872  Biso   1.000  C 
  C45      1.0000 0.64156  0.97328  0.17548  Biso   1.000  C 
  C46      1.0000 0.58262  0.99809  0.11957  Biso   1.000  C 
  C47      1.0000 0.58250  0.51641  0.87923  Biso   1.000  C 
  C48      1.0000 0.71116  0.75743  0.27227  Biso   1.000  C 
  H1       1.0000 0.37243  0.16866  0.77151  Biso   1.000  H 
  H2       1.0000 0.22165  0.90050  0.81106  Biso   1.000  H 
  H3       1.0000 0.62253  0.84846  0.77756  Biso   1.000  H 
  H4       1.0000 0.22186  0.61488  0.18802  Biso   1.000  H 
  H5       1.0000 0.37237  0.34676  0.22770  Biso   1.000  H 
  H6       1.0000 0.17102  0.24355  0.63863  Biso   1.000  H 
  H7       1.0000 0.47760  0.01436  0.86152  Biso   1.000  H 
  H8       1.0000 0.32376  0.77264  0.85665  Biso   1.000  H 
  H9       1.0000 0.27341  0.11684  0.68287  Biso   1.000  H 
  H10      1.0000 0.12253  0.84851  0.72154  Biso   1.000  H 
  H11      1.0000 0.77345  0.11676  0.81647  Biso   1.000  H 
  H12      1.0000 0.62299  0.66605  0.22142  Biso   1.000  H 
  H13      1.0000 0.17100  0.27170  0.36061  Biso   1.000  H 
  H14      1.0000 0.82401  0.74345  0.35712  Biso   1.000  H 
  H15      1.0000 0.47738  0.50081  0.13725  Biso   1.000  H 
  H16      1.0000 0.77325  0.39855  0.18219  Biso   1.000  H 
  H17      1.0000 0.82370  0.77271  0.64229  Biso   1.000  H 
  H18      1.0000 0.32388  0.74300  0.14209  Biso   1.000  H 
  H19      1.0000 0.87247  0.16878  0.72786  Biso   1.000  H 
  H20      1.0000 0.72162  0.90055  0.68791  Biso   1.000  H 
  H21      1.0000 0.67104  0.24345  0.86074  Biso   1.000  H 
  H22      1.0000 0.12281  0.66662  0.27777  Biso   1.000  H 
  H23      1.0000 0.27335  0.39841  0.31634  Biso   1.000  H 
  H24      1.0000 0.72208  0.61479  0.31123  Biso   1.000  H 
  H25      1.0000 0.97717  0.50178  0.36203  Biso   1.000  H 
  H26      1.0000 0.97739  0.01460  0.63741  Biso   1.000  H 
  H27      1.0000 0.67094  0.27129  0.13804  Biso   1.000  H 
  H28      1.0000 0.87225  0.34743  0.27109  Biso   1.000  H 
  O1       1.0000 0.05387  0.83802  0.39938  Biso   1.000  O 
  O2       1.0000 0.55383  0.83755  0.09976  Biso   1.000  O 
  O3       1.0000 0.56545  0.17441  0.09448  Biso   1.000  O 
  O4       1.0000 0.42936  0.67574  0.90150  Biso   1.000  O 
  O5       1.0000 0.44139  0.33800  0.89453  Biso   1.000  O 
  O6       1.0000 0.06536  0.17492  0.40438  Biso   1.000  O 
  O7       1.0000 0.44136  0.17751  0.10431  Biso   1.000  O 
  O8       1.0000 0.42944  0.83985  0.09732  Biso   1.000  O 
  O9       1.0000 0.56556  0.34015  0.90477  Biso   1.000  O 
  O10      1.0000 0.94143  0.33827  0.60471  Biso   1.000  O 
  O11      1.0000 0.55349  0.67682  0.89855  Biso   1.000  O 
  O12      1.0000 0.49606  0.50719  0.06607  Biso   1.000  O 
  O13      1.0000 0.92930  0.67595  0.59739  Biso   1.000  O 
  O14      1.0000 0.06564  0.34036  0.59415  Biso   1.000  O 
  O15      1.0000 0.99609  0.50778  0.43300  Biso   1.000  O 
  O16      1.0000 0.99612  0.00827  0.56627  Biso   1.000  O 
  O17      1.0000 0.49612  0.00797  0.93283  Biso   1.000  O 
  O18      1.0000 0.94122  0.17855  0.39493  Biso   1.000  O 
  O19      1.0000 0.92960  0.84076  0.40160  Biso   1.000  O 
  O20      1.0000 0.05345  0.67693  0.60069  Biso   1.000  O 
