data_image0
_cell_length_a       23.4493
_cell_length_b       6.68428
_cell_length_c       8.85851
_cell_angle_alpha    90.0368
_cell_angle_beta     90.0232
_cell_angle_gamma    89.9265

_symmetry_space_group_name_H-M    "P 1"
_symmetry_int_tables_number       1

loop_
  _symmetry_equiv_pos_as_xyz
  'x, y, z'

loop_
  _atom_site_label
  _atom_site_occupancy
  _atom_site_fract_x
  _atom_site_fract_y
  _atom_site_fract_z
  _atom_site_thermal_displace_type
  _atom_site_B_iso_or_equiv
  _atom_site_type_symbol
  Al1      1.0000 0.49407  0.75777  0.99951  Biso   1.000  Al
  Al2      1.0000 0.50096  0.25774  0.99957  Biso   1.000  Al
  Al3      1.0000 0.00096  0.25752  0.50000  Biso   1.000  Al
  Al4      1.0000 0.99406  0.75753  0.49997  Biso   1.000  Al
  C1       1.0000 0.33490  0.22787  0.26692  Biso   1.000  C 
  C2       1.0000 0.75691  0.91185  0.27603  Biso   1.000  C 
  C3       1.0000 0.08044  0.51629  0.65661  Biso   1.000  C 
  C4       1.0000 0.14072  0.54071  0.70745  Biso   1.000  C 
  C5       1.0000 0.15951  0.72912  0.76278  Biso   1.000  C 
  C6       1.0000 0.21602  0.75839  0.79818  Biso   1.000  C 
  C7       1.0000 0.23790  0.41324  0.71957  Biso   1.000  C 
  C8       1.0000 0.17924  0.38540  0.68853  Biso   1.000  C 
  C9       1.0000 0.91438  0.49968  0.66049  Biso   1.000  C 
  C10      1.0000 0.85405  0.47596  0.71112  Biso   1.000  C 
  C11      1.0000 0.81561  0.88456  0.30761  Biso   1.000  C 
  C12      1.0000 0.27839  0.25687  0.30216  Biso   1.000  C 
  C13      1.0000 0.75678  0.60347  0.72311  Biso   1.000  C 
  C14      1.0000 0.81545  0.63104  0.69176  Biso   1.000  C 
  C15      1.0000 0.77873  0.25858  0.80200  Biso   1.000  C 
  C16      1.0000 0.85406  0.03978  0.28828  Biso   1.000  C 
  C17      1.0000 0.77851  0.25669  0.19690  Biso   1.000  C 
  C18      1.0000 0.83503  0.22754  0.23214  Biso   1.000  C 
  C19      1.0000 0.91441  0.01631  0.33911  Biso   1.000  C 
  C20      1.0000 0.67923  0.38511  0.81040  Biso   1.000  C 
  C21      1.0000 0.31553  0.88493  0.19099  Biso   1.000  C 
  C22      1.0000 0.83522  0.28811  0.76712  Biso   1.000  C 
  C23      1.0000 0.41443  0.49958  0.83859  Biso   1.000  C 
  C24      1.0000 0.25684  0.91201  0.22264  Biso   1.000  C 
  C25      1.0000 0.65943  0.72880  0.73649  Biso   1.000  C 
  C26      1.0000 0.71590  0.75802  0.70074  Biso   1.000  C 
  C27      1.0000 0.27873  0.25888  0.69632  Biso   1.000  C 
  C28      1.0000 0.35396  0.04021  0.21054  Biso   1.000  C 
  C29      1.0000 0.41433  0.01672  0.15997  Biso   1.000  C 
  C30      1.0000 0.08049  0.99804  0.34343  Biso   1.000  C 
  C31      1.0000 0.15966  0.78599  0.23616  Biso   1.000  C 
  C32      1.0000 0.21614  0.75722  0.20015  Biso   1.000  C 
  C33      1.0000 0.23772  0.10228  0.27907  Biso   1.000  C 
  C34      1.0000 0.17907  0.12962  0.31075  Biso   1.000  C 
  C35      1.0000 0.67914  0.12982  0.18841  Biso   1.000  C 
  C36      1.0000 0.73781  0.10224  0.21986  Biso   1.000  C 
  C37      1.0000 0.14073  0.97409  0.29202  Biso   1.000  C 
  C38      1.0000 0.33524  0.28823  0.73129  Biso   1.000  C 
  C39      1.0000 0.35412  0.47601  0.78756  Biso   1.000  C 
  C40      1.0000 0.73787  0.41291  0.77903  Biso   1.000  C 
  C41      1.0000 0.65968  0.78626  0.26269  Biso   1.000  C 
  C42      1.0000 0.25686  0.60379  0.77558  Biso   1.000  C 
  C43      1.0000 0.64070  0.54045  0.79188  Biso   1.000  C 
  C44      1.0000 0.31555  0.63121  0.80697  Biso   1.000  C 
  C45      1.0000 0.64076  0.97447  0.20715  Biso   1.000  C 
  C46      1.0000 0.58048  0.99868  0.15615  Biso   1.000  C 
  C47      1.0000 0.58048  0.51629  0.84312  Biso   1.000  C 
  C48      1.0000 0.71619  0.75724  0.29845  Biso   1.000  C 
  H1       1.0000 0.36638  0.16878  0.71671  Biso   1.000  H 
  H2       1.0000 0.23035  0.90128  0.84400  Biso   1.000  H 
  H3       1.0000 0.62817  0.84832  0.72352  Biso   1.000  H 
  H4       1.0000 0.23057  0.61457  0.15391  Biso   1.000  H 
  H5       1.0000 0.36590  0.34753  0.28141  Biso   1.000  H 
  H6       1.0000 0.16415  0.24169  0.64605  Biso   1.000  H 
  H7       1.0000 0.48085  0.01274  0.80621  Biso   1.000  H 
  H8       1.0000 0.33053  0.77466  0.85027  Biso   1.000  H 
  H9       1.0000 0.26438  0.11628  0.65007  Biso   1.000  H 
  H10      1.0000 0.12827  0.84866  0.77602  Biso   1.000  H 
  H11      1.0000 0.76444  0.11589  0.84803  Biso   1.000  H 
  H12      1.0000 0.62855  0.66665  0.27578  Biso   1.000  H 
  H13      1.0000 0.16389  0.27313  0.35362  Biso   1.000  H 
  H14      1.0000 0.83073  0.74118  0.35081  Biso   1.000  H 
  H15      1.0000 0.48074  0.50300  0.19282  Biso   1.000  H 
  H16      1.0000 0.76405  0.39923  0.15069  Biso   1.000  H 
  H17      1.0000 0.83041  0.77455  0.64870  Biso   1.000  H 
  H18      1.0000 0.33067  0.74163  0.14756  Biso   1.000  H 
  H19      1.0000 0.86639  0.16870  0.78152  Biso   1.000  H 
  H20      1.0000 0.73016  0.90085  0.65482  Biso   1.000  H 
  H21      1.0000 0.66419  0.24139  0.85285  Biso   1.000  H 
  H22      1.0000 0.12854  0.66633  0.22296  Biso   1.000  H 
  H23      1.0000 0.26391  0.39932  0.34859  Biso   1.000  H 
  H24      1.0000 0.73060  0.61448  0.34440  Biso   1.000  H 
  H25      1.0000 0.98122  0.50261  0.30633  Biso   1.000  H 
  H26      1.0000 0.98099  0.01270  0.69346  Biso   1.000  H 
  H27      1.0000 0.66396  0.27339  0.14575  Biso   1.000  H 
  H28      1.0000 0.86605  0.34715  0.21786  Biso   1.000  H 
  O1       1.0000 0.05227  0.83739  0.36218  Biso   1.000  O 
  O2       1.0000 0.55214  0.83820  0.13767  Biso   1.000  O 
  O3       1.0000 0.56191  0.17442  0.12995  Biso   1.000  O 
  O4       1.0000 0.43285  0.67547  0.86570  Biso   1.000  O 
  O5       1.0000 0.44283  0.33833  0.85645  Biso   1.000  O 
  O6       1.0000 0.06188  0.17374  0.36964  Biso   1.000  O 
  O7       1.0000 0.44265  0.17793  0.14226  Biso   1.000  O 
  O8       1.0000 0.43289  0.84078  0.13313  Biso   1.000  O 
  O9       1.0000 0.56204  0.34066  0.86958  Biso   1.000  O 
  O10      1.0000 0.94289  0.33856  0.64302  Biso   1.000  O 
  O11      1.0000 0.55205  0.67689  0.86148  Biso   1.000  O 
  O12      1.0000 0.49636  0.50756  0.09168  Biso   1.000  O 
  O13      1.0000 0.93275  0.67557  0.63332  Biso   1.000  O 
  O14      1.0000 0.06207  0.34053  0.63009  Biso   1.000  O 
  O15      1.0000 0.99643  0.50721  0.40793  Biso   1.000  O 
  O16      1.0000 0.99636  0.00792  0.59206  Biso   1.000  O 
  O17      1.0000 0.49638  0.00804  0.90748  Biso   1.000  O 
  O18      1.0000 0.94267  0.17759  0.35719  Biso   1.000  O 
  O19      1.0000 0.93302  0.84043  0.36581  Biso   1.000  O 
  O20      1.0000 0.05193  0.67673  0.63853  Biso   1.000  O 
