data_image0
_cell_length_a       21.8357
_cell_length_b       6.66813
_cell_length_c       13.285
_cell_angle_alpha    89.8904
_cell_angle_beta     90.0001
_cell_angle_gamma    89.9243

_symmetry_space_group_name_H-M    "P 1"
_symmetry_int_tables_number       1

loop_
  _symmetry_equiv_pos_as_xyz
  'x, y, z'

loop_
  _atom_site_label
  _atom_site_occupancy
  _atom_site_fract_x
  _atom_site_fract_y
  _atom_site_fract_z
  _atom_site_thermal_displace_type
  _atom_site_B_iso_or_equiv
  _atom_site_type_symbol
  Al1      1.0000 0.49324  0.75773  0.99948  Biso   1.000  Al
  Al2      1.0000 0.50229  0.25779  0.99941  Biso   1.000  Al
  Al3      1.0000 0.00231  0.25781  0.49933  Biso   1.000  Al
  Al4      1.0000 0.99319  0.75774  0.49967  Biso   1.000  Al
  C1       1.0000 0.33997  0.22762  0.21965  Biso   1.000  C 
  C2       1.0000 0.75404  0.91280  0.27191  Biso   1.000  C 
  C3       1.0000 0.08363  0.51542  0.61294  Biso   1.000  C 
  C4       1.0000 0.14192  0.54059  0.67018  Biso   1.000  C 
  C5       1.0000 0.15476  0.72834  0.71606  Biso   1.000  C 
  C6       1.0000 0.20898  0.75724  0.76673  Biso   1.000  C 
  C7       1.0000 0.24103  0.41348  0.72451  Biso   1.000  C 
  C8       1.0000 0.18421  0.38609  0.67516  Biso   1.000  C 
  C9       1.0000 0.91165  0.49922  0.61636  Biso   1.000  C 
  C10      1.0000 0.85329  0.47474  0.67369  Biso   1.000  C 
  C11      1.0000 0.81088  0.88672  0.32164  Biso   1.000  C 
  C12      1.0000 0.28570  0.25628  0.27012  Biso   1.000  C 
  C13      1.0000 0.75400  0.60245  0.72740  Biso   1.000  C 
  C14      1.0000 0.81081  0.62895  0.67772  Biso   1.000  C 
  C15      1.0000 0.78610  0.25926  0.77137  Biso   1.000  C 
  C16      1.0000 0.85314  0.04124  0.32560  Biso   1.000  C 
  C17      1.0000 0.78575  0.25603  0.22769  Biso   1.000  C 
  C18      1.0000 0.84001  0.22787  0.27831  Biso   1.000  C 
  C19      1.0000 0.91157  0.01726  0.38284  Biso   1.000  C 
  C20      1.0000 0.68439  0.38683  0.82485  Biso   1.000  C 
  C21      1.0000 0.31083  0.88621  0.17764  Biso   1.000  C 
  C22      1.0000 0.84036  0.28796  0.72087  Biso   1.000  C 
  C23      1.0000 0.41161  0.50034  0.88272  Biso   1.000  C 
  C24      1.0000 0.25397  0.91281  0.22721  Biso   1.000  C 
  C25      1.0000 0.65497  0.72875  0.78253  Biso   1.000  C 
  C26      1.0000 0.70919  0.75708  0.73173  Biso   1.000  C 
  C27      1.0000 0.28592  0.25921  0.72913  Biso   1.000  C 
  C28      1.0000 0.35312  0.04061  0.17312  Biso   1.000  C 
  C29      1.0000 0.41158  0.01637  0.11607  Biso   1.000  C 
  C30      1.0000 0.08377  0.99898  0.38627  Biso   1.000  C 
  C31      1.0000 0.15515  0.78647  0.28307  Biso   1.000  C 
  C32      1.0000 0.20933  0.75805  0.23216  Biso   1.000  C 
  C33      1.0000 0.24102  0.10181  0.27463  Biso   1.000  C 
  C34      1.0000 0.18420  0.12879  0.32412  Biso   1.000  C 
  C35      1.0000 0.68425  0.12802  0.17421  Biso   1.000  C 
  C36      1.0000 0.74108  0.10142  0.22375  Biso   1.000  C 
  C37      1.0000 0.14210  0.97407  0.32906  Biso   1.000  C 
  C38      1.0000 0.34021  0.28846  0.77937  Biso   1.000  C 
  C39      1.0000 0.35317  0.47571  0.82569  Biso   1.000  C 
  C40      1.0000 0.74123  0.41364  0.77540  Biso   1.000  C 
  C41      1.0000 0.65522  0.78599  0.21655  Biso   1.000  C 
  C42      1.0000 0.25382  0.60277  0.77167  Biso   1.000  C 
  C43      1.0000 0.64209  0.54138  0.82911  Biso   1.000  C 
  C44      1.0000 0.31069  0.62988  0.82108  Biso   1.000  C 
  C45      1.0000 0.64213  0.97329  0.16991  Biso   1.000  C 
  C46      1.0000 0.58377  0.99813  0.11270  Biso   1.000  C 
  C47      1.0000 0.58374  0.51630  0.88622  Biso   1.000  C 
  C48      1.0000 0.70942  0.75796  0.26751  Biso   1.000  C 
  H1       1.0000 0.37419  0.16927  0.78451  Biso   1.000  H 
  H2       1.0000 0.21843  0.90000  0.80359  Biso   1.000  H 
  H3       1.0000 0.62097  0.84795  0.78820  Biso   1.000  H 
  H4       1.0000 0.21893  0.61546  0.19516  Biso   1.000  H 
  H5       1.0000 0.37380  0.34701  0.21455  Biso   1.000  H 
  H6       1.0000 0.17375  0.24290  0.63948  Biso   1.000  H 
  H7       1.0000 0.47624  0.01528  0.87286  Biso   1.000  H 
  H8       1.0000 0.32096  0.77279  0.85720  Biso   1.000  H 
  H9       1.0000 0.27646  0.11649  0.69224  Biso   1.000  H 
  H10      1.0000 0.12074  0.84741  0.70991  Biso   1.000  H 
  H11      1.0000 0.77664  0.11686  0.80886  Biso   1.000  H 
  H12      1.0000 0.62137  0.66663  0.21086  Biso   1.000  H 
  H13      1.0000 0.17359  0.27183  0.35993  Biso   1.000  H 
  H14      1.0000 0.82134  0.74436  0.35851  Biso   1.000  H 
  H15      1.0000 0.47602  0.50029  0.12589  Biso   1.000  H 
  H16      1.0000 0.77612  0.39815  0.18999  Biso   1.000  H 
  H17      1.0000 0.82106  0.77144  0.64092  Biso   1.000  H 
  H18      1.0000 0.32128  0.74349  0.14138  Biso   1.000  H 
  H19      1.0000 0.87433  0.16867  0.71621  Biso   1.000  H 
  H20      1.0000 0.71870  0.89954  0.69433  Biso   1.000  H 
  H21      1.0000 0.67391  0.24399  0.86114  Biso   1.000  H 
  H22      1.0000 0.12129  0.66720  0.28922  Biso   1.000  H 
  H23      1.0000 0.27610  0.39870  0.30725  Biso   1.000  H 
  H24      1.0000 0.71907  0.61562  0.30498  Biso   1.000  H 
  H25      1.0000 0.97598  0.50155  0.37308  Biso   1.000  H 
  H26      1.0000 0.97616  0.01490  0.62602  Biso   1.000  H 
  H27      1.0000 0.67363  0.27078  0.13784  Biso   1.000  H 
  H28      1.0000 0.87383  0.34729  0.28294  Biso   1.000  H 
  O1       1.0000 0.05494  0.83842  0.40689  Biso   1.000  O 
  O2       1.0000 0.55498  0.83755  0.09228  Biso   1.000  O 
  O3       1.0000 0.56700  0.17438  0.08778  Biso   1.000  O 
  O4       1.0000 0.42783  0.67654  0.90887  Biso   1.000  O 
  O5       1.0000 0.44093  0.33915  0.90198  Biso   1.000  O 
  O6       1.0000 0.06701  0.17519  0.41099  Biso   1.000  O 
  O7       1.0000 0.44050  0.17780  0.09628  Biso   1.000  O 
  O8       1.0000 0.42821  0.84011  0.09051  Biso   1.000  O 
  O9       1.0000 0.56740  0.34013  0.91179  Biso   1.000  O 
  O10      1.0000 0.94086  0.33809  0.59692  Biso   1.000  O 
  O11      1.0000 0.55448  0.67657  0.90594  Biso   1.000  O 
  O12      1.0000 0.49615  0.50733  0.06102  Biso   1.000  O 
  O13      1.0000 0.92787  0.67560  0.59017  Biso   1.000  O 
  O14      1.0000 0.06740  0.33944  0.58719  Biso   1.000  O 
  O15      1.0000 0.99614  0.50787  0.43793  Biso   1.000  O 
  O16      1.0000 0.99618  0.00799  0.56105  Biso   1.000  O 
  O17      1.0000 0.49617  0.00831  0.93791  Biso   1.000  O 
  O18      1.0000 0.94043  0.17871  0.40255  Biso   1.000  O 
  O19      1.0000 0.92823  0.84096  0.40862  Biso   1.000  O 
  O20      1.0000 0.05432  0.67575  0.59324  Biso   1.000  O 
