data_image0
_cell_length_a       22.6349
_cell_length_b       6.67443
_cell_length_c       11.5119
_cell_angle_alpha    90.0068
_cell_angle_beta     89.9872
_cell_angle_gamma    89.9527

_symmetry_space_group_name_H-M    "P 1"
_symmetry_int_tables_number       1

loop_
  _symmetry_equiv_pos_as_xyz
  'x, y, z'

loop_
  _atom_site_label
  _atom_site_occupancy
  _atom_site_fract_x
  _atom_site_fract_y
  _atom_site_fract_z
  _atom_site_thermal_displace_type
  _atom_site_B_iso_or_equiv
  _atom_site_type_symbol
  Al1      1.0000 0.49344  0.75748  0.99963  Biso   1.000  Al
  Al2      1.0000 0.50149  0.25745  0.99953  Biso   1.000  Al
  Al3      1.0000 0.00149  0.25784  0.49959  Biso   1.000  Al
  Al4      1.0000 0.99341  0.75786  0.49948  Biso   1.000  Al
  C1       1.0000 0.33845  0.22684  0.23712  Biso   1.000  C 
  C2       1.0000 0.75522  0.91276  0.27314  Biso   1.000  C 
  C3       1.0000 0.08189  0.51669  0.62558  Biso   1.000  C 
  C4       1.0000 0.14118  0.54138  0.68046  Biso   1.000  C 
  C5       1.0000 0.15653  0.72847  0.73117  Biso   1.000  C 
  C6       1.0000 0.21187  0.75706  0.77766  Biso   1.000  C 
  C7       1.0000 0.23990  0.41436  0.72051  Biso   1.000  C 
  C8       1.0000 0.18211  0.38727  0.67617  Biso   1.000  C 
  C9       1.0000 0.91309  0.49949  0.62996  Biso   1.000  C 
  C10      1.0000 0.85392  0.47552  0.68559  Biso   1.000  C 
  C11      1.0000 0.81297  0.88638  0.31793  Biso   1.000  C 
  C12      1.0000 0.28309  0.25537  0.28353  Biso   1.000  C 
  C13      1.0000 0.75513  0.60266  0.72609  Biso   1.000  C 
  C14      1.0000 0.81290  0.62953  0.68149  Biso   1.000  C 
  C15      1.0000 0.78320  0.26011  0.78326  Biso   1.000  C 
  C16      1.0000 0.85385  0.04059  0.31376  Biso   1.000  C 
  C17      1.0000 0.78304  0.25533  0.21567  Biso   1.000  C 
  C18      1.0000 0.83836  0.22695  0.26224  Biso   1.000  C 
  C19      1.0000 0.91302  0.01672  0.36941  Biso   1.000  C 
  C20      1.0000 0.68198  0.38655  0.82234  Biso   1.000  C 
  C21      1.0000 0.31306  0.88620  0.18148  Biso   1.000  C 
  C22      1.0000 0.83854  0.28896  0.73692  Biso   1.000  C 
  C23      1.0000 0.41308  0.49915  0.86931  Biso   1.000  C 
  C24      1.0000 0.25527  0.91276  0.22609  Biso   1.000  C 
  C25      1.0000 0.65639  0.72793  0.76777  Biso   1.000  C 
  C26      1.0000 0.71176  0.75670  0.72135  Biso   1.000  C 
  C27      1.0000 0.28327  0.26044  0.71532  Biso   1.000  C 
  C28      1.0000 0.35394  0.04038  0.18568  Biso   1.000  C 
  C29      1.0000 0.41311  0.01645  0.13004  Biso   1.000  C 
  C30      1.0000 0.08186  0.99872  0.37331  Biso   1.000  C 
  C31      1.0000 0.15667  0.78693  0.26783  Biso   1.000  C 
  C32      1.0000 0.21204  0.75847  0.22132  Biso   1.000  C 
  C33      1.0000 0.23980  0.10142  0.27825  Biso   1.000  C 
  C34      1.0000 0.18197  0.12842  0.32249  Biso   1.000  C 
  C35      1.0000 0.68197  0.12825  0.17658  Biso   1.000  C 
  C36      1.0000 0.73976  0.10136  0.22091  Biso   1.000  C 
  C37      1.0000 0.14117  0.97411  0.31838  Biso   1.000  C 
  C38      1.0000 0.33858  0.28898  0.76188  Biso   1.000  C 
  C39      1.0000 0.35395  0.47535  0.81348  Biso   1.000  C 
  C40      1.0000 0.73978  0.41388  0.77810  Biso   1.000  C 
  C41      1.0000 0.65668  0.78673  0.23122  Biso   1.000  C 
  C42      1.0000 0.25522  0.60293  0.77284  Biso   1.000  C 
  C43      1.0000 0.64105  0.54070  0.81825  Biso   1.000  C 
  C44      1.0000 0.31296  0.62948  0.81763  Biso   1.000  C 
  C45      1.0000 0.64119  0.97388  0.18065  Biso   1.000  C 
  C46      1.0000 0.58192  0.99848  0.12568  Biso   1.000  C 
  C47      1.0000 0.58179  0.51599  0.87325  Biso   1.000  C 
  C48      1.0000 0.71202  0.75836  0.27783  Biso   1.000  C 
  H1       1.0000 0.37146  0.16983  0.76019  Biso   1.000  H 
  H2       1.0000 0.22339  0.89939  0.81845  Biso   1.000  H 
  H3       1.0000 0.62340  0.84690  0.76707  Biso   1.000  H 
  H4       1.0000 0.22368  0.61618  0.18053  Biso   1.000  H 
  H5       1.0000 0.37126  0.34604  0.23888  Biso   1.000  H 
  H6       1.0000 0.16971  0.24476  0.63665  Biso   1.000  H 
  H7       1.0000 0.47847  0.01351  0.85204  Biso   1.000  H 
  H8       1.0000 0.32518  0.77168  0.85773  Biso   1.000  H 
  H9       1.0000 0.27178  0.11842  0.67414  Biso   1.000  H 
  H10      1.0000 0.12355  0.84747  0.73197  Biso   1.000  H 
  H11      1.0000 0.77170  0.11796  0.82427  Biso   1.000  H 
  H12      1.0000 0.62379  0.66758  0.23194  Biso   1.000  H 
  H13      1.0000 0.16943  0.27101  0.36187  Biso   1.000  H 
  H14      1.0000 0.82533  0.74416  0.35792  Biso   1.000  H 
  H15      1.0000 0.47841  0.50141  0.14711  Biso   1.000  H 
  H16      1.0000 0.77147  0.39723  0.17437  Biso   1.000  H 
  H17      1.0000 0.82512  0.77191  0.64160  Biso   1.000  H 
  H18      1.0000 0.32542  0.74393  0.14153  Biso   1.000  H 
  H19      1.0000 0.87143  0.16984  0.73862  Biso   1.000  H 
  H20      1.0000 0.72329  0.89915  0.68073  Biso   1.000  H 
  H21      1.0000 0.66957  0.24388  0.86167  Biso   1.000  H 
  H22      1.0000 0.12380  0.66775  0.26709  Biso   1.000  H 
  H23      1.0000 0.27149  0.39739  0.32468  Biso   1.000  H 
  H24      1.0000 0.72367  0.61609  0.31864  Biso   1.000  H 
  H25      1.0000 0.97834  0.50176  0.35206  Biso   1.000  H 
  H26      1.0000 0.97847  0.01371  0.64711  Biso   1.000  H 
  H27      1.0000 0.66944  0.27079  0.13720  Biso   1.000  H 
  H28      1.0000 0.87117  0.34614  0.26050  Biso   1.000  H 
  O1       1.0000 0.05321  0.83817  0.39262  Biso   1.000  O 
  O2       1.0000 0.55327  0.83795  0.10634  Biso   1.000  O 
  O3       1.0000 0.56439  0.17449  0.10036  Biso   1.000  O 
  O4       1.0000 0.43026  0.67528  0.89602  Biso   1.000  O 
  O5       1.0000 0.44179  0.33783  0.88821  Biso   1.000  O 
  O6       1.0000 0.06433  0.17476  0.39865  Biso   1.000  O 
  O7       1.0000 0.44172  0.17772  0.11086  Biso   1.000  O 
  O8       1.0000 0.43047  0.84028  0.10367  Biso   1.000  O 
  O9       1.0000 0.56443  0.33996  0.89875  Biso   1.000  O 
  O10      1.0000 0.94185  0.33825  0.61107  Biso   1.000  O 
  O11      1.0000 0.55300  0.67647  0.89244  Biso   1.000  O 
  O12      1.0000 0.49615  0.50723  0.07062  Biso   1.000  O 
  O13      1.0000 0.93029  0.67564  0.60338  Biso   1.000  O 
  O14      1.0000 0.06449  0.34067  0.60013  Biso   1.000  O 
  O15      1.0000 0.99608  0.50755  0.42854  Biso   1.000  O 
  O16      1.0000 0.99613  0.00805  0.57054  Biso   1.000  O 
  O17      1.0000 0.49612  0.00771  0.92860  Biso   1.000  O 
  O18      1.0000 0.94163  0.17798  0.38855  Biso   1.000  O 
  O19      1.0000 0.93038  0.84051  0.39568  Biso   1.000  O 
  O20      1.0000 0.05311  0.67719  0.60643  Biso   1.000  O 
