data_image0
_cell_length_a       23.5673
_cell_length_b       6.68696
_cell_length_c       8.28996
_cell_angle_alpha    90.04
_cell_angle_beta     90.0171
_cell_angle_gamma    89.8672

_symmetry_space_group_name_H-M    "P 1"
_symmetry_int_tables_number       1

loop_
  _symmetry_equiv_pos_as_xyz
  'x, y, z'

loop_
  _atom_site_label
  _atom_site_occupancy
  _atom_site_fract_x
  _atom_site_fract_y
  _atom_site_fract_z
  _atom_site_thermal_displace_type
  _atom_site_B_iso_or_equiv
  _atom_site_type_symbol
  Al1      1.0000 0.49419  0.75816  0.99897  Biso   1.000  Al
  Al2      1.0000 0.50087  0.25816  0.99924  Biso   1.000  Al
  Al3      1.0000 0.00089  0.25741  0.49987  Biso   1.000  Al
  Al4      1.0000 0.99416  0.75741  0.49998  Biso   1.000  Al
  C1       1.0000 0.33382  0.23084  0.26847  Biso   1.000  C 
  C2       1.0000 0.75726  0.91133  0.27534  Biso   1.000  C 
  C3       1.0000 0.08024  0.51525  0.66551  Biso   1.000  C 
  C4       1.0000 0.14071  0.54001  0.71478  Biso   1.000  C 
  C5       1.0000 0.16021  0.73045  0.76655  Biso   1.000  C 
  C6       1.0000 0.21685  0.76038  0.79794  Biso   1.000  C 
  C7       1.0000 0.23736  0.41122  0.72340  Biso   1.000  C 
  C8       1.0000 0.17862  0.38301  0.69629  Biso   1.000  C 
  C9       1.0000 0.91452  0.49996  0.66886  Biso   1.000  C 
  C10      1.0000 0.85390  0.47531  0.71675  Biso   1.000  C 
  C11      1.0000 0.81607  0.88352  0.30243  Biso   1.000  C 
  C12      1.0000 0.27712  0.26036  0.29941  Biso   1.000  C 
  C13      1.0000 0.75712  0.60388  0.72422  Biso   1.000  C 
  C14      1.0000 0.81588  0.63191  0.69729  Biso   1.000  C 
  C15      1.0000 0.77763  0.25504  0.79932  Biso   1.000  C 
  C16      1.0000 0.85381  0.04033  0.28290  Biso   1.000  C 
  C17      1.0000 0.77721  0.26011  0.19977  Biso   1.000  C 
  C18      1.0000 0.83390  0.23028  0.23065  Biso   1.000  C 
  C19      1.0000 0.91447  0.01631  0.33093  Biso   1.000  C 
  C20      1.0000 0.67867  0.38298  0.80300  Biso   1.000  C 
  C21      1.0000 0.31614  0.88387  0.19670  Biso   1.000  C 
  C22      1.0000 0.83429  0.28518  0.76874  Biso   1.000  C 
  C23      1.0000 0.41451  0.50052  0.82989  Biso   1.000  C 
  C24      1.0000 0.25732  0.91137  0.22375  Biso   1.000  C 
  C25      1.0000 0.66027  0.73027  0.73265  Biso   1.000  C 
  C26      1.0000 0.71690  0.76003  0.70105  Biso   1.000  C 
  C27      1.0000 0.27759  0.25529  0.69970  Biso   1.000  C 
  C28      1.0000 0.35382  0.04094  0.21620  Biso   1.000  C 
  C29      1.0000 0.41447  0.01707  0.16809  Biso   1.000  C 
  C30      1.0000 0.08038  0.99821  0.33449  Biso   1.000  C 
  C31      1.0000 0.16072  0.78418  0.23230  Biso   1.000  C 
  C32      1.0000 0.21739  0.75497  0.20033  Biso   1.000  C 
  C33      1.0000 0.23723  0.10405  0.27563  Biso   1.000  C 
  C34      1.0000 0.17845  0.13155  0.30318  Biso   1.000  C 
  C35      1.0000 0.67847  0.13191  0.19603  Biso   1.000  C 
  C36      1.0000 0.73724  0.10406  0.22352  Biso   1.000  C 
  C37      1.0000 0.14086  0.97422  0.28468  Biso   1.000  C 
  C38      1.0000 0.33426  0.28556  0.73013  Biso   1.000  C 
  C39      1.0000 0.35388  0.47581  0.78200  Biso   1.000  C 
  C40      1.0000 0.73740  0.41098  0.77572  Biso   1.000  C 
  C41      1.0000 0.66060  0.78473  0.26672  Biso   1.000  C 
  C42      1.0000 0.25709  0.60428  0.77472  Biso   1.000  C 
  C43      1.0000 0.64077  0.54000  0.78458  Biso   1.000  C 
  C44      1.0000 0.31586  0.63245  0.80147  Biso   1.000  C 
  C45      1.0000 0.64081  0.97484  0.21450  Biso   1.000  C 
  C46      1.0000 0.58034  0.99912  0.16471  Biso   1.000  C 
  C47      1.0000 0.58030  0.51553  0.83392  Biso   1.000  C 
  C48      1.0000 0.71726  0.75522  0.29865  Biso   1.000  C 
  H1       1.0000 0.36497  0.16508  0.71494  Biso   1.000  H 
  H2       1.0000 0.23170  0.90472  0.84199  Biso   1.000  H 
  H3       1.0000 0.62945  0.85071  0.71869  Biso   1.000  H 
  H4       1.0000 0.23250  0.61100  0.15571  Biso   1.000  H 
  H5       1.0000 0.36430  0.35156  0.28363  Biso   1.000  H 
  H6       1.0000 0.16298  0.23770  0.65658  Biso   1.000  H 
  H7       1.0000 0.48192  0.01267  0.79145  Biso   1.000  H 
  H8       1.0000 0.33144  0.77772  0.84150  Biso   1.000  H 
  H9       1.0000 0.26272  0.11103  0.65555  Biso   1.000  H 
  H10      1.0000 0.12939  0.85089  0.78053  Biso   1.000  H 
  H11      1.0000 0.76276  0.11085  0.84348  Biso   1.000  H 
  H12      1.0000 0.62996  0.66418  0.28066  Biso   1.000  H 
  H13      1.0000 0.16255  0.27658  0.34330  Biso   1.000  H 
  H14      1.0000 0.83187  0.73847  0.34274  Biso   1.000  H 
  H15      1.0000 0.48187  0.50427  0.20677  Biso   1.000  H 
  H16      1.0000 0.76211  0.40407  0.15532  Biso   1.000  H 
  H17      1.0000 0.83144  0.77710  0.65722  Biso   1.000  H 
  H18      1.0000 0.33200  0.73882  0.15643  Biso   1.000  H 
  H19      1.0000 0.86500  0.16468  0.78384  Biso   1.000  H 
  H20      1.0000 0.73175  0.90418  0.65679  Biso   1.000  H 
  H21      1.0000 0.66304  0.23775  0.84277  Biso   1.000  H 
  H22      1.0000 0.13013  0.66348  0.21821  Biso   1.000  H 
  H23      1.0000 0.26197  0.40431  0.34389  Biso   1.000  H 
  H24      1.0000 0.73230  0.61115  0.34314  Biso   1.000  H 
  H25      1.0000 0.98234  0.50327  0.29186  Biso   1.000  H 
  H26      1.0000 0.98226  0.01226  0.70784  Biso   1.000  H 
  H27      1.0000 0.66263  0.27699  0.15595  Biso   1.000  H 
  H28      1.0000 0.86443  0.35081  0.21553  Biso   1.000  H 
  O1       1.0000 0.05228  0.83753  0.35357  Biso   1.000  O 
  O2       1.0000 0.55218  0.83854  0.14561  Biso   1.000  O 
  O3       1.0000 0.56140  0.17479  0.13914  Biso   1.000  O 
  O4       1.0000 0.43294  0.67662  0.85690  Biso   1.000  O 
  O5       1.0000 0.44328  0.33990  0.84634  Biso   1.000  O 
  O6       1.0000 0.06140  0.17387  0.36007  Biso   1.000  O 
  O7       1.0000 0.44272  0.17816  0.15047  Biso   1.000  O 
  O8       1.0000 0.43342  0.84112  0.14216  Biso   1.000  O 
  O9       1.0000 0.56183  0.33989  0.86085  Biso   1.000  O 
  O10      1.0000 0.94329  0.33933  0.65246  Biso   1.000  O 
  O11      1.0000 0.55166  0.67581  0.85128  Biso   1.000  O 
  O12      1.0000 0.49643  0.50807  0.09759  Biso   1.000  O 
  O13      1.0000 0.93293  0.67602  0.64189  Biso   1.000  O 
  O14      1.0000 0.06182  0.33951  0.63852  Biso   1.000  O 
  O15      1.0000 0.99652  0.50720  0.40147  Biso   1.000  O 
  O16      1.0000 0.99650  0.00773  0.59832  Biso   1.000  O 
  O17      1.0000 0.49647  0.00829  0.90067  Biso   1.000  O 
  O18      1.0000 0.94276  0.17735  0.34853  Biso   1.000  O 
  O19      1.0000 0.93340  0.84036  0.35683  Biso   1.000  O 
  O20      1.0000 0.05157  0.67546  0.64819  Biso   1.000  O 
