data_image0
_cell_length_a       17.1589
_cell_length_b       6.698
_cell_length_c       12.4598
_cell_angle_alpha    89.9999
_cell_angle_beta     89.9997
_cell_angle_gamma    89.9977

_symmetry_space_group_name_H-M    "P 1"
_symmetry_int_tables_number       1

loop_
  _symmetry_equiv_pos_as_xyz
  'x, y, z'

loop_
  _atom_site_label
  _atom_site_occupancy
  _atom_site_fract_x
  _atom_site_fract_y
  _atom_site_fract_z
  _atom_site_thermal_displace_type
  _atom_site_B_iso_or_equiv
  _atom_site_type_symbol
  Al1      1.0000 0.50000  0.50002  0.50000  Biso   1.000  Al
  Al2      1.0000 0.00000  0.50001  0.00002  Biso   1.000  Al
  Al3      1.0000 0.50000  0.00001  0.50000  Biso   1.000  Al
  Al4      1.0000 1.00000  0.00001  0.00000  Biso   1.000  Al
  C1       1.0000 0.17504  0.75001  0.79973  Biso   1.000  C 
  C2       1.0000 0.82496  0.24999  0.20027  Biso   1.000  C 
  C3       1.0000 0.72229  0.43113  0.29109  Biso   1.000  C 
  C4       1.0000 0.88654  0.75000  0.88424  Biso   1.000  C 
  C5       1.0000 0.20939  0.93119  0.76893  Biso   1.000  C 
  C6       1.0000 0.22229  0.06885  0.20891  Biso   1.000  C 
  C7       1.0000 0.89669  0.25000  0.13221  Biso   1.000  C 
  C8       1.0000 0.70939  0.56882  0.73107  Biso   1.000  C 
  C9       1.0000 0.27771  0.93115  0.70891  Biso   1.000  C 
  C10      1.0000 0.68740  0.24999  0.32088  Biso   1.000  C 
  C11      1.0000 0.81260  0.75000  0.82090  Biso   1.000  C 
  C12      1.0000 0.77771  0.56888  0.79110  Biso   1.000  C 
  C13      1.0000 0.29061  0.06880  0.26893  Biso   1.000  C 
  C14      1.0000 0.79061  0.43119  0.23107  Biso   1.000  C 
  C15      1.0000 0.27771  0.56888  0.70890  Biso   1.000  C 
  C16      1.0000 0.79061  0.06881  0.23106  Biso   1.000  C 
  C17      1.0000 0.38654  0.75001  0.61578  Biso   1.000  C 
  C18      1.0000 0.67504  0.75001  0.70027  Biso   1.000  C 
  C19      1.0000 0.72229  0.06886  0.29109  Biso   1.000  C 
  C20      1.0000 0.10330  0.75000  0.86780  Biso   1.000  C 
  C21      1.0000 0.31260  0.75000  0.67911  Biso   1.000  C 
  C22      1.0000 0.77771  0.93114  0.79110  Biso   1.000  C 
  C23      1.0000 0.70939  0.93119  0.73107  Biso   1.000  C 
  C24      1.0000 0.39670  0.25000  0.36780  Biso   1.000  C 
  C25      1.0000 0.32496  0.24999  0.29972  Biso   1.000  C 
  C26      1.0000 0.18740  0.24999  0.17911  Biso   1.000  C 
  C27      1.0000 0.20938  0.56882  0.76893  Biso   1.000  C 
  C28      1.0000 0.61346  0.25000  0.38422  Biso   1.000  C 
  C29      1.0000 0.11346  0.24998  0.11578  Biso   1.000  C 
  C30      1.0000 0.22230  0.43111  0.20890  Biso   1.000  C 
  C31      1.0000 0.29062  0.43118  0.26893  Biso   1.000  C 
  C32      1.0000 0.60331  0.74999  0.63220  Biso   1.000  C 
  H1       1.0000 0.69473  0.57024  0.31573  Biso   1.000  H 
  H2       1.0000 0.80526  0.07027  0.81574  Biso   1.000  H 
  H3       1.0000 0.81821  0.57021  0.20632  Biso   1.000  H 
  H4       1.0000 0.81822  0.92981  0.20630  Biso   1.000  H 
  H5       1.0000 0.19474  0.92972  0.18427  Biso   1.000  H 
  H6       1.0000 0.98526  0.25001  0.85931  Biso   1.000  H 
  H7       1.0000 0.31822  0.92981  0.29370  Biso   1.000  H 
  H8       1.0000 0.68178  0.07019  0.70631  Biso   1.000  H 
  H9       1.0000 0.69473  0.92973  0.31573  Biso   1.000  H 
  H10      1.0000 0.30527  0.42977  0.68425  Biso   1.000  H 
  H11      1.0000 0.30526  0.07028  0.68427  Biso   1.000  H 
  H12      1.0000 0.18178  0.42979  0.79367  Biso   1.000  H 
  H13      1.0000 0.80527  0.42976  0.81575  Biso   1.000  H 
  H14      1.0000 0.18178  0.07019  0.79369  Biso   1.000  H 
  H15      1.0000 0.31822  0.57020  0.29367  Biso   1.000  H 
  H16      1.0000 0.48526  0.24999  0.64069  Biso   1.000  H 
  H17      1.0000 0.19474  0.57022  0.18425  Biso   1.000  H 
  H18      1.0000 0.01475  0.75000  0.14070  Biso   1.000  H 
  H19      1.0000 0.68179  0.42979  0.70632  Biso   1.000  H 
  H20      1.0000 0.51474  0.75000  0.35930  Biso   1.000  H 
  O1       1.0000 0.08451  0.41922  0.09136  Biso   1.000  O 
  O2       1.0000 0.49684  0.25000  0.56469  Biso   1.000  O 
  O3       1.0000 0.42441  0.41936  0.39447  Biso   1.000  O 
  O4       1.0000 0.07559  0.58064  0.89447  Biso   1.000  O 
  O5       1.0000 0.91547  0.91926  0.90866  Biso   1.000  O 
  O6       1.0000 0.57558  0.91933  0.60552  Biso   1.000  O 
  O7       1.0000 0.58453  0.08074  0.40865  Biso   1.000  O 
  O8       1.0000 0.91550  0.58077  0.90865  Biso   1.000  O 
  O9       1.0000 0.57560  0.58064  0.60553  Biso   1.000  O 
  O10      1.0000 0.42443  0.08066  0.39447  Biso   1.000  O 
  O11      1.0000 0.92441  0.41936  0.10554  Biso   1.000  O 
  O12      1.0000 0.08453  0.08074  0.09135  Biso   1.000  O 
  O13      1.0000 0.41548  0.91925  0.59135  Biso   1.000  O 
  O14      1.0000 0.00316  0.75000  0.06470  Biso   1.000  O 
  O15      1.0000 0.07557  0.91934  0.89447  Biso   1.000  O 
  O16      1.0000 0.99684  0.25000  0.93531  Biso   1.000  O 
  O17      1.0000 0.50316  0.75000  0.43530  Biso   1.000  O 
  O18      1.0000 0.92443  0.08066  0.10553  Biso   1.000  O 
  O19      1.0000 0.58450  0.41924  0.40864  Biso   1.000  O 
  O20      1.0000 0.41550  0.58077  0.59136  Biso   1.000  O 
