data_image0
_cell_length_a       19.1961
_cell_length_b       6.68121
_cell_length_c       6.02014
_cell_angle_alpha    89.9861
_cell_angle_beta     89.9978
_cell_angle_gamma    89.9928

_symmetry_space_group_name_H-M    "P 1"
_symmetry_int_tables_number       1

loop_
  _symmetry_equiv_pos_as_xyz
  'x, y, z'

loop_
  _atom_site_label
  _atom_site_occupancy
  _atom_site_fract_x
  _atom_site_fract_y
  _atom_site_fract_z
  _atom_site_thermal_displace_type
  _atom_site_B_iso_or_equiv
  _atom_site_type_symbol
  Al1      1.0000 0.50001  0.49999  0.49998  Biso   1.000  Al
  Al2      1.0000 0.00000  0.49998  0.99992  Biso   1.000  Al
  Al3      1.0000 0.50000  0.00001  0.49999  Biso   1.000  Al
  Al4      1.0000 0.00000  0.00001  0.99991  Biso   1.000  Al
  C1       1.0000 0.15984  0.75008  0.66734  Biso   1.000  C 
  C2       1.0000 0.84017  0.24999  0.33274  Biso   1.000  C 
  C3       1.0000 0.73136  0.43147  0.34489  Biso   1.000  C 
  C4       1.0000 0.88286  0.75005  0.85909  Biso   1.000  C 
  C5       1.0000 0.19634  0.93167  0.66070  Biso   1.000  C 
  C6       1.0000 0.23137  0.06848  0.15510  Biso   1.000  C 
  C7       1.0000 0.91587  0.24999  0.28094  Biso   1.000  C 
  C8       1.0000 0.69635  0.56833  0.83929  Biso   1.000  C 
  C9       1.0000 0.26864  0.93155  0.65511  Biso   1.000  C 
  C10      1.0000 0.69478  0.24996  0.34502  Biso   1.000  C 
  C11      1.0000 0.80522  0.74999  0.84506  Biso   1.000  C 
  C12      1.0000 0.76866  0.56846  0.84488  Biso   1.000  C 
  C13      1.0000 0.30367  0.06844  0.16064  Biso   1.000  C 
  C14      1.0000 0.80366  0.43158  0.33939  Biso   1.000  C 
  C15      1.0000 0.26865  0.56854  0.65513  Biso   1.000  C 
  C16      1.0000 0.80368  0.06840  0.33939  Biso   1.000  C 
  C17      1.0000 0.38287  0.75002  0.64091  Biso   1.000  C 
  C18      1.0000 0.65983  0.74989  0.83271  Biso   1.000  C 
  C19      1.0000 0.73138  0.06846  0.34491  Biso   1.000  C 
  C20      1.0000 0.08414  0.75007  0.71903  Biso   1.000  C 
  C21      1.0000 0.30523  0.75003  0.65502  Biso   1.000  C 
  C22      1.0000 0.76860  0.93148  0.84497  Biso   1.000  C 
  C23      1.0000 0.69630  0.93150  0.83938  Biso   1.000  C 
  C24      1.0000 0.41586  0.25008  0.21905  Biso   1.000  C 
  C25      1.0000 0.34015  0.25006  0.16733  Biso   1.000  C 
  C26      1.0000 0.19476  0.24997  0.15502  Biso   1.000  C 
  C27      1.0000 0.19634  0.56848  0.66072  Biso   1.000  C 
  C28      1.0000 0.61715  0.24996  0.35907  Biso   1.000  C 
  C29      1.0000 0.11713  0.24993  0.14089  Biso   1.000  C 
  C30      1.0000 0.23134  0.43150  0.15518  Biso   1.000  C 
  C31      1.0000 0.30364  0.43164  0.16071  Biso   1.000  C 
  C32      1.0000 0.58412  0.74987  0.78095  Biso   1.000  C 
  H1       1.0000 0.70197  0.57066  0.34708  Biso   1.000  H 
  H2       1.0000 0.79797  0.07071  0.84728  Biso   1.000  H 
  H3       1.0000 0.83296  0.57087  0.33377  Biso   1.000  H 
  H4       1.0000 0.83300  0.92911  0.33376  Biso   1.000  H 
  H5       1.0000 0.20202  0.92928  0.15284  Biso   1.000  H 
  H6       1.0000 0.99108  0.25005  0.70802  Biso   1.000  H 
  H7       1.0000 0.33301  0.92917  0.16623  Biso   1.000  H 
  H8       1.0000 0.66697  0.07075  0.83378  Biso   1.000  H 
  H9       1.0000 0.70201  0.92926  0.34710  Biso   1.000  H 
  H10      1.0000 0.29802  0.42934  0.65289  Biso   1.000  H 
  H11      1.0000 0.29802  0.07073  0.65285  Biso   1.000  H 
  H12      1.0000 0.16702  0.42921  0.66638  Biso   1.000  H 
  H13      1.0000 0.79805  0.42931  0.84709  Biso   1.000  H 
  H14      1.0000 0.16702  0.07097  0.66638  Biso   1.000  H 
  H15      1.0000 0.33294  0.57092  0.16639  Biso   1.000  H 
  H16      1.0000 0.49111  0.24996  0.79186  Biso   1.000  H 
  H17      1.0000 0.20194  0.57068  0.15299  Biso   1.000  H 
  H18      1.0000 0.00890  0.74995  0.29189  Biso   1.000  H 
  H19      1.0000 0.66706  0.42900  0.83358  Biso   1.000  H 
  H20      1.0000 0.50896  0.75006  0.20799  Biso   1.000  H 
  O1       1.0000 0.08693  0.41951  0.13233  Biso   1.000  O 
  O2       1.0000 0.48901  0.24997  0.63100  Biso   1.000  O 
  O3       1.0000 0.44575  0.41868  0.24757  Biso   1.000  O 
  O4       1.0000 0.05422  0.58150  0.74744  Biso   1.000  O 
  O5       1.0000 0.91304  0.91964  0.86768  Biso   1.000  O 
  O6       1.0000 0.55419  0.91845  0.75258  Biso   1.000  O 
  O7       1.0000 0.58695  0.08039  0.36766  Biso   1.000  O 
  O8       1.0000 0.91307  0.58048  0.86759  Biso   1.000  O 
  O9       1.0000 0.55420  0.58131  0.75246  Biso   1.000  O 
  O10      1.0000 0.44581  0.08152  0.24745  Biso   1.000  O 
  O11      1.0000 0.94579  0.41858  0.25248  Biso   1.000  O 
  O12      1.0000 0.08695  0.08034  0.13230  Biso   1.000  O 
  O13      1.0000 0.41305  0.91962  0.63231  Biso   1.000  O 
  O14      1.0000 0.01100  0.74998  0.13102  Biso   1.000  O 
  O15      1.0000 0.05420  0.91863  0.74744  Biso   1.000  O 
  O16      1.0000 0.98900  0.25004  0.86888  Biso   1.000  O 
  O17      1.0000 0.51102  0.75002  0.36887  Biso   1.000  O 
  O18      1.0000 0.94580  0.08142  0.25245  Biso   1.000  O 
  O19      1.0000 0.58694  0.41955  0.36756  Biso   1.000  O 
  O20      1.0000 0.41308  0.58045  0.63242  Biso   1.000  O 
