data_image0
_cell_length_a       19.2809
_cell_length_b       6.70655
_cell_length_c       7.33214
_cell_angle_alpha    89.9932
_cell_angle_beta     89.9997
_cell_angle_gamma    89.9961

_symmetry_space_group_name_H-M    "P 1"
_symmetry_int_tables_number       1

loop_
  _symmetry_equiv_pos_as_xyz
  'x, y, z'

loop_
  _atom_site_label
  _atom_site_occupancy
  _atom_site_fract_x
  _atom_site_fract_y
  _atom_site_fract_z
  _atom_site_thermal_displace_type
  _atom_site_B_iso_or_equiv
  _atom_site_type_symbol
  Al1      1.0000 0.50000  0.49998  0.49999  Biso   1.000  Al
  Al2      1.0000 1.00000  0.50002  0.00001  Biso   1.000  Al
  Al3      1.0000 0.50000  0.99998  0.50000  Biso   1.000  Al
  Al4      1.0000 0.00000  0.00002  0.00001  Biso   1.000  Al
  C1       1.0000 0.17453  0.75000  0.75977  Biso   1.000  C 
  C2       1.0000 0.82547  0.25001  0.24025  Biso   1.000  C 
  C3       1.0000 0.71778  0.43099  0.27738  Biso   1.000  C 
  C4       1.0000 0.89457  0.75007  0.82784  Biso   1.000  C 
  C5       1.0000 0.21072  0.93099  0.74682  Biso   1.000  C 
  C6       1.0000 0.21779  0.06899  0.22263  Biso   1.000  C 
  C7       1.0000 0.90087  0.25003  0.19395  Biso   1.000  C 
  C8       1.0000 0.71074  0.56901  0.75313  Biso   1.000  C 
  C9       1.0000 0.28222  0.93098  0.72261  Biso   1.000  C 
  C10      1.0000 0.68155  0.25000  0.28908  Biso   1.000  C 
  C11      1.0000 0.81845  0.75004  0.78906  Biso   1.000  C 
  C12      1.0000 0.78224  0.56904  0.77734  Biso   1.000  C 
  C13      1.0000 0.28929  0.06901  0.24684  Biso   1.000  C 
  C14      1.0000 0.78928  0.43099  0.25317  Biso   1.000  C 
  C15      1.0000 0.28222  0.56901  0.72261  Biso   1.000  C 
  C16      1.0000 0.78929  0.06902  0.25320  Biso   1.000  C 
  C17      1.0000 0.39458  0.74998  0.67215  Biso   1.000  C 
  C18      1.0000 0.67453  0.74997  0.74021  Biso   1.000  C 
  C19      1.0000 0.71779  0.06901  0.27740  Biso   1.000  C 
  C20      1.0000 0.09913  0.74999  0.80607  Biso   1.000  C 
  C21      1.0000 0.31845  0.74998  0.71092  Biso   1.000  C 
  C22      1.0000 0.78220  0.93102  0.77738  Biso   1.000  C 
  C23      1.0000 0.71070  0.93098  0.75317  Biso   1.000  C 
  C24      1.0000 0.40087  0.25002  0.30606  Biso   1.000  C 
  C25      1.0000 0.32547  0.25001  0.25979  Biso   1.000  C 
  C26      1.0000 0.18155  0.24997  0.21094  Biso   1.000  C 
  C27      1.0000 0.21072  0.56902  0.74683  Biso   1.000  C 
  C28      1.0000 0.60543  0.24999  0.32783  Biso   1.000  C 
  C29      1.0000 0.10543  0.24995  0.17217  Biso   1.000  C 
  C30      1.0000 0.21776  0.43097  0.22266  Biso   1.000  C 
  C31      1.0000 0.28927  0.43098  0.24686  Biso   1.000  C 
  C32      1.0000 0.59913  0.74995  0.69393  Biso   1.000  C 
  H1       1.0000 0.68880  0.56986  0.28814  Biso   1.000  H 
  H2       1.0000 0.81117  0.06991  0.78817  Biso   1.000  H 
  H3       1.0000 0.81812  0.56995  0.24150  Biso   1.000  H 
  H4       1.0000 0.81814  0.93005  0.24155  Biso   1.000  H 
  H5       1.0000 0.18882  0.93011  0.21184  Biso   1.000  H 
  H6       1.0000 0.00392  0.25005  0.75812  Biso   1.000  H 
  H7       1.0000 0.31814  0.93006  0.25848  Biso   1.000  H 
  H8       1.0000 0.68185  0.06992  0.74152  Biso   1.000  H 
  H9       1.0000 0.68882  0.93014  0.28818  Biso   1.000  H 
  H10      1.0000 0.31119  0.43012  0.71182  Biso   1.000  H 
  H11      1.0000 0.31119  0.06984  0.71183  Biso   1.000  H 
  H12      1.0000 0.18187  0.43007  0.75849  Biso   1.000  H 
  H13      1.0000 0.81122  0.43019  0.78809  Biso   1.000  H 
  H14      1.0000 0.18187  0.06996  0.75848  Biso   1.000  H 
  H15      1.0000 0.31811  0.56995  0.25853  Biso   1.000  H 
  H16      1.0000 0.50393  0.24998  0.74188  Biso   1.000  H 
  H17      1.0000 0.18879  0.56982  0.21190  Biso   1.000  H 
  H18      1.0000 0.99608  0.74997  0.24190  Biso   1.000  H 
  H19      1.0000 0.68190  0.43003  0.74146  Biso   1.000  H 
  H20      1.0000 0.49604  0.75001  0.25811  Biso   1.000  H 
  O1       1.0000 0.07585  0.41874  0.15408  Biso   1.000  O 
  O2       1.0000 0.49812  0.24999  0.61072  Biso   1.000  O 
  O3       1.0000 0.43030  0.41854  0.32811  Biso   1.000  O 
  O4       1.0000 0.06970  0.58147  0.82816  Biso   1.000  O 
  O5       1.0000 0.92412  0.91889  0.84605  Biso   1.000  O 
  O6       1.0000 0.56967  0.91845  0.67190  Biso   1.000  O 
  O7       1.0000 0.57587  0.08118  0.34599  Biso   1.000  O 
  O8       1.0000 0.92416  0.58129  0.84591  Biso   1.000  O 
  O9       1.0000 0.56970  0.58143  0.67185  Biso   1.000  O 
  O10      1.0000 0.43033  0.08151  0.32809  Biso   1.000  O 
  O11      1.0000 0.93029  0.41856  0.17184  Biso   1.000  O 
  O12      1.0000 0.07588  0.08115  0.15396  Biso   1.000  O 
  O13      1.0000 0.42414  0.91879  0.65401  Biso   1.000  O 
  O14      1.0000 0.00188  0.74999  0.11073  Biso   1.000  O 
  O15      1.0000 0.06967  0.91850  0.82807  Biso   1.000  O 
  O16      1.0000 0.99811  0.25002  0.88928  Biso   1.000  O 
  O17      1.0000 0.50189  0.75000  0.38926  Biso   1.000  O 
  O18      1.0000 0.93033  0.08152  0.17195  Biso   1.000  O 
  O19      1.0000 0.57585  0.41878  0.34594  Biso   1.000  O 
  O20      1.0000 0.42414  0.58119  0.65401  Biso   1.000  O 
