data_image0
_cell_length_a       16.4207
_cell_length_b       6.70622
_cell_length_c       13.5188
_cell_angle_alpha    90.0001
_cell_angle_beta     90
_cell_angle_gamma    90.0006

_symmetry_space_group_name_H-M    "P 1"
_symmetry_int_tables_number       1

loop_
  _symmetry_equiv_pos_as_xyz
  'x, y, z'

loop_
  _atom_site_label
  _atom_site_occupancy
  _atom_site_fract_x
  _atom_site_fract_y
  _atom_site_fract_z
  _atom_site_thermal_displace_type
  _atom_site_B_iso_or_equiv
  _atom_site_type_symbol
  Al1      1.0000 0.50000  0.49999  0.50000  Biso   1.000  Al
  Al2      1.0000 0.00000  0.50001  1.00000  Biso   1.000  Al
  Al3      1.0000 0.50000  0.99999  0.50000  Biso   1.000  Al
  Al4      1.0000 0.00000  0.00001  1.00000  Biso   1.000  Al
  C1       1.0000 0.17571  0.74999  0.80374  Biso   1.000  C 
  C2       1.0000 0.82429  0.25001  0.19626  Biso   1.000  C 
  C3       1.0000 0.72416  0.43086  0.29240  Biso   1.000  C 
  C4       1.0000 0.88301  0.75001  0.89015  Biso   1.000  C 
  C5       1.0000 0.20921  0.93090  0.77113  Biso   1.000  C 
  C6       1.0000 0.22416  0.06914  0.20760  Biso   1.000  C 
  C7       1.0000 0.89450  0.25000  0.12571  Biso   1.000  C 
  C8       1.0000 0.70920  0.56910  0.72888  Biso   1.000  C 
  C9       1.0000 0.27584  0.93086  0.70760  Biso   1.000  C 
  C10      1.0000 0.69003  0.25001  0.32409  Biso   1.000  C 
  C11      1.0000 0.80997  0.75000  0.82409  Biso   1.000  C 
  C12      1.0000 0.77583  0.56914  0.79241  Biso   1.000  C 
  C13      1.0000 0.29080  0.06910  0.27113  Biso   1.000  C 
  C14      1.0000 0.79080  0.43090  0.22887  Biso   1.000  C 
  C15      1.0000 0.27584  0.56914  0.70760  Biso   1.000  C 
  C16      1.0000 0.79080  0.06911  0.22887  Biso   1.000  C 
  C17      1.0000 0.38301  0.74999  0.60985  Biso   1.000  C 
  C18      1.0000 0.67571  0.75000  0.69627  Biso   1.000  C 
  C19      1.0000 0.72416  0.06914  0.29240  Biso   1.000  C 
  C20      1.0000 0.10550  0.75001  0.87428  Biso   1.000  C 
  C21      1.0000 0.30998  0.75000  0.67591  Biso   1.000  C 
  C22      1.0000 0.77583  0.93086  0.79241  Biso   1.000  C 
  C23      1.0000 0.70920  0.93090  0.72888  Biso   1.000  C 
  C24      1.0000 0.39450  0.24999  0.37428  Biso   1.000  C 
  C25      1.0000 0.32429  0.24999  0.30374  Biso   1.000  C 
  C26      1.0000 0.19002  0.25000  0.17591  Biso   1.000  C 
  C27      1.0000 0.20920  0.56910  0.77113  Biso   1.000  C 
  C28      1.0000 0.61700  0.25000  0.39015  Biso   1.000  C 
  C29      1.0000 0.11699  0.25001  0.10985  Biso   1.000  C 
  C30      1.0000 0.22416  0.43086  0.20760  Biso   1.000  C 
  C31      1.0000 0.29080  0.43090  0.27113  Biso   1.000  C 
  C32      1.0000 0.60550  0.75000  0.62572  Biso   1.000  C 
  H1       1.0000 0.69731  0.56989  0.31828  Biso   1.000  H 
  H2       1.0000 0.80269  0.06990  0.81829  Biso   1.000  H 
  H3       1.0000 0.81770  0.56983  0.20288  Biso   1.000  H 
  H4       1.0000 0.81769  0.93017  0.20287  Biso   1.000  H 
  H5       1.0000 0.19729  0.93011  0.18172  Biso   1.000  H 
  H6       1.0000 0.98480  0.25001  0.87049  Biso   1.000  H 
  H7       1.0000 0.31769  0.93016  0.29713  Biso   1.000  H 
  H8       1.0000 0.68230  0.06982  0.70288  Biso   1.000  H 
  H9       1.0000 0.69730  0.93010  0.31827  Biso   1.000  H 
  H10      1.0000 0.30270  0.43010  0.68172  Biso   1.000  H 
  H11      1.0000 0.30270  0.06989  0.68172  Biso   1.000  H 
  H12      1.0000 0.18231  0.43018  0.79713  Biso   1.000  H 
  H13      1.0000 0.80269  0.43011  0.81829  Biso   1.000  H 
  H14      1.0000 0.18231  0.06984  0.79712  Biso   1.000  H 
  H15      1.0000 0.31770  0.56983  0.29713  Biso   1.000  H 
  H16      1.0000 0.48479  0.24999  0.62950  Biso   1.000  H 
  H17      1.0000 0.19730  0.56990  0.18173  Biso   1.000  H 
  H18      1.0000 0.01520  0.75001  0.12950  Biso   1.000  H 
  H19      1.0000 0.68230  0.43017  0.70288  Biso   1.000  H 
  H20      1.0000 0.51520  0.74999  0.37050  Biso   1.000  H 
  O1       1.0000 0.08825  0.41912  0.08465  Biso   1.000  O 
  O2       1.0000 0.49651  0.24999  0.55936  Biso   1.000  O 
  O3       1.0000 0.42172  0.41924  0.40162  Biso   1.000  O 
  O4       1.0000 0.07828  0.58076  0.90161  Biso   1.000  O 
  O5       1.0000 0.91175  0.91912  0.91535  Biso   1.000  O 
  O6       1.0000 0.57828  0.91924  0.59838  Biso   1.000  O 
  O7       1.0000 0.58825  0.08089  0.41535  Biso   1.000  O 
  O8       1.0000 0.91175  0.58090  0.91535  Biso   1.000  O 
  O9       1.0000 0.57828  0.58075  0.59839  Biso   1.000  O 
  O10      1.0000 0.42172  0.08074  0.40162  Biso   1.000  O 
  O11      1.0000 0.92172  0.41925  0.09838  Biso   1.000  O 
  O12      1.0000 0.08825  0.08090  0.08465  Biso   1.000  O 
  O13      1.0000 0.41175  0.91910  0.58465  Biso   1.000  O 
  O14      1.0000 0.00349  0.75001  0.05935  Biso   1.000  O 
  O15      1.0000 0.07828  0.91926  0.90161  Biso   1.000  O 
  O16      1.0000 0.99651  0.25001  0.94064  Biso   1.000  O 
  O17      1.0000 0.50349  0.74999  0.44064  Biso   1.000  O 
  O18      1.0000 0.92172  0.08075  0.09838  Biso   1.000  O 
  O19      1.0000 0.58825  0.41910  0.41535  Biso   1.000  O 
  O20      1.0000 0.41175  0.58088  0.58465  Biso   1.000  O 
