data_image0
_cell_length_a       15.6393
_cell_length_b       6.85668
_cell_length_c       14.8765
_cell_angle_alpha    89.9992
_cell_angle_beta     90.0001
_cell_angle_gamma    90.0001

_symmetry_space_group_name_H-M    "P 1"
_symmetry_int_tables_number       1

loop_
  _symmetry_equiv_pos_as_xyz
  'x, y, z'

loop_
  _atom_site_label
  _atom_site_occupancy
  _atom_site_fract_x
  _atom_site_fract_y
  _atom_site_fract_z
  _atom_site_thermal_displace_type
  _atom_site_B_iso_or_equiv
  _atom_site_type_symbol
  Al1      1.0000 0.50000  0.50010  0.49996  Biso   1.000  Al
  Al2      1.0000 0.00000  0.49990  0.99998  Biso   1.000  Al
  Al3      1.0000 0.50000  0.00009  0.50002  Biso   1.000  Al
  Al4      1.0000 0.99999  0.99990  0.00003  Biso   1.000  Al
  C1       1.0000 0.18384  0.74995  0.81543  Biso   1.000  C 
  C2       1.0000 0.81616  0.24994  0.18458  Biso   1.000  C 
  C3       1.0000 0.71937  0.42589  0.28443  Biso   1.000  C 
  C4       1.0000 0.88399  0.74995  0.88867  Biso   1.000  C 
  C5       1.0000 0.21681  0.92587  0.78131  Biso   1.000  C 
  C6       1.0000 0.21936  0.07411  0.21557  Biso   1.000  C 
  C7       1.0000 0.88579  0.24992  0.11363  Biso   1.000  C 
  C8       1.0000 0.71682  0.57413  0.71868  Biso   1.000  C 
  C9       1.0000 0.28063  0.92589  0.71558  Biso   1.000  C 
  C10      1.0000 0.68616  0.25005  0.31837  Biso   1.000  C 
  C11      1.0000 0.81384  0.74996  0.81837  Biso   1.000  C 
  C12      1.0000 0.78064  0.57411  0.78441  Biso   1.000  C 
  C13      1.0000 0.28318  0.07414  0.28130  Biso   1.000  C 
  C14      1.0000 0.78318  0.42585  0.21870  Biso   1.000  C 
  C15      1.0000 0.28066  0.57414  0.71555  Biso   1.000  C 
  C16      1.0000 0.78316  0.07407  0.21872  Biso   1.000  C 
  C17      1.0000 0.38399  0.75005  0.61133  Biso   1.000  C 
  C18      1.0000 0.68384  0.75005  0.68457  Biso   1.000  C 
  C19      1.0000 0.71935  0.07415  0.28446  Biso   1.000  C 
  C20      1.0000 0.11421  0.74992  0.88638  Biso   1.000  C 
  C21      1.0000 0.31384  0.75004  0.68163  Biso   1.000  C 
  C22      1.0000 0.78065  0.92586  0.78445  Biso   1.000  C 
  C23      1.0000 0.71684  0.92592  0.71872  Biso   1.000  C 
  C24      1.0000 0.38579  0.25008  0.38637  Biso   1.000  C 
  C25      1.0000 0.31616  0.25006  0.31542  Biso   1.000  C 
  C26      1.0000 0.18616  0.24996  0.18163  Biso   1.000  C 
  C27      1.0000 0.21684  0.57408  0.78129  Biso   1.000  C 
  C28      1.0000 0.61600  0.25005  0.38867  Biso   1.000  C 
  C29      1.0000 0.11601  0.24995  0.11132  Biso   1.000  C 
  C30      1.0000 0.21934  0.42586  0.21555  Biso   1.000  C 
  C31      1.0000 0.28316  0.42593  0.28128  Biso   1.000  C 
  C32      1.0000 0.61421  0.75009  0.61362  Biso   1.000  C 
  H1       1.0000 0.69433  0.56303  0.31048  Biso   1.000  H 
  H2       1.0000 0.80570  0.06297  0.81052  Biso   1.000  H 
  H3       1.0000 0.80832  0.56298  0.19269  Biso   1.000  H 
  H4       1.0000 0.80828  0.93694  0.19273  Biso   1.000  H 
  H5       1.0000 0.19433  0.93697  0.18952  Biso   1.000  H 
  H6       1.0000 0.99528  0.24993  0.88207  Biso   1.000  H 
  H7       1.0000 0.30832  0.93701  0.30731  Biso   1.000  H 
  H8       1.0000 0.69171  0.06306  0.69273  Biso   1.000  H 
  H9       1.0000 0.69429  0.93702  0.31052  Biso   1.000  H 
  H10      1.0000 0.30570  0.43703  0.68949  Biso   1.000  H 
  H11      1.0000 0.30567  0.06303  0.68952  Biso   1.000  H 
  H12      1.0000 0.19172  0.43695  0.80729  Biso   1.000  H 
  H13      1.0000 0.80568  0.43696  0.81046  Biso   1.000  H 
  H14      1.0000 0.19168  0.06298  0.80732  Biso   1.000  H 
  H15      1.0000 0.30828  0.56307  0.30727  Biso   1.000  H 
  H16      1.0000 0.49531  0.25007  0.61793  Biso   1.000  H 
  H17      1.0000 0.19429  0.56298  0.18948  Biso   1.000  H 
  H18      1.0000 0.00473  0.74993  0.11792  Biso   1.000  H 
  H19      1.0000 0.69170  0.43702  0.69266  Biso   1.000  H 
  H20      1.0000 0.50476  0.75006  0.38207  Biso   1.000  H 
  O1       1.0000 0.08850  0.41571  0.08453  Biso   1.000  O 
  O2       1.0000 0.49940  0.25012  0.55293  Biso   1.000  O 
  O3       1.0000 0.41299  0.41592  0.41342  Biso   1.000  O 
  O4       1.0000 0.08700  0.58408  0.91342  Biso   1.000  O 
  O5       1.0000 0.91150  0.91571  0.91547  Biso   1.000  O 
  O6       1.0000 0.58700  0.91592  0.58658  Biso   1.000  O 
  O7       1.0000 0.58850  0.08429  0.41547  Biso   1.000  O 
  O8       1.0000 0.91150  0.58418  0.91547  Biso   1.000  O 
  O9       1.0000 0.58700  0.58425  0.58658  Biso   1.000  O 
  O10      1.0000 0.41299  0.08425  0.41343  Biso   1.000  O 
  O11      1.0000 0.91300  0.41574  0.08658  Biso   1.000  O 
  O12      1.0000 0.08850  0.08418  0.08453  Biso   1.000  O 
  O13      1.0000 0.41150  0.91581  0.58453  Biso   1.000  O 
  O14      1.0000 0.00059  0.74988  0.05293  Biso   1.000  O 
  O15      1.0000 0.08700  0.91574  0.91343  Biso   1.000  O 
  O16      1.0000 0.99940  0.24990  0.94707  Biso   1.000  O 
  O17      1.0000 0.50060  0.75011  0.44707  Biso   1.000  O 
  O18      1.0000 0.91300  0.08408  0.08659  Biso   1.000  O 
  O19      1.0000 0.58850  0.41582  0.41547  Biso   1.000  O 
  O20      1.0000 0.41149  0.58429  0.58453  Biso   1.000  O 
