data_image0
_cell_length_a       19.3497
_cell_length_b       6.70837
_cell_length_c       6.92466
_cell_angle_alpha    89.9997
_cell_angle_beta     89.9999
_cell_angle_gamma    89.9982

_symmetry_space_group_name_H-M    "P 1"
_symmetry_int_tables_number       1

loop_
  _symmetry_equiv_pos_as_xyz
  'x, y, z'

loop_
  _atom_site_label
  _atom_site_occupancy
  _atom_site_fract_x
  _atom_site_fract_y
  _atom_site_fract_z
  _atom_site_thermal_displace_type
  _atom_site_B_iso_or_equiv
  _atom_site_type_symbol
  Al1      1.0000 0.50001  0.49989  0.50019  Biso   1.000  Al
  Al2      1.0000 1.00000  0.50007  0.99978  Biso   1.000  Al
  Al3      1.0000 0.50000  0.99991  0.50007  Biso   1.000  Al
  Al4      1.0000 0.00000  0.00007  0.99975  Biso   1.000  Al
  C1       1.0000 0.17531  0.75003  0.75562  Biso   1.000  C 
  C2       1.0000 0.82470  0.25004  0.24432  Biso   1.000  C 
  C3       1.0000 0.71693  0.43091  0.27226  Biso   1.000  C 
  C4       1.0000 0.89539  0.75003  0.81715  Biso   1.000  C 
  C5       1.0000 0.21153  0.93096  0.74570  Biso   1.000  C 
  C6       1.0000 0.21694  0.06912  0.22776  Biso   1.000  C 
  C7       1.0000 0.90035  0.25007  0.20156  Biso   1.000  C 
  C8       1.0000 0.71152  0.56901  0.75434  Biso   1.000  C 
  C9       1.0000 0.28306  0.93093  0.72782  Biso   1.000  C 
  C10      1.0000 0.68072  0.24998  0.28103  Biso   1.000  C 
  C11      1.0000 0.81928  0.75001  0.78093  Biso   1.000  C 
  C12      1.0000 0.78306  0.56908  0.77223  Biso   1.000  C 
  C13      1.0000 0.28847  0.06909  0.24574  Biso   1.000  C 
  C14      1.0000 0.78847  0.43095  0.25428  Biso   1.000  C 
  C15      1.0000 0.28307  0.56908  0.72787  Biso   1.000  C 
  C16      1.0000 0.78850  0.06907  0.25433  Biso   1.000  C 
  C17      1.0000 0.39540  0.74998  0.68284  Biso   1.000  C 
  C18      1.0000 0.67530  0.74993  0.74443  Biso   1.000  C 
  C19      1.0000 0.71697  0.06908  0.27232  Biso   1.000  C 
  C20      1.0000 0.09964  0.75004  0.79812  Biso   1.000  C 
  C21      1.0000 0.31929  0.75000  0.71914  Biso   1.000  C 
  C22      1.0000 0.78304  0.93091  0.77225  Biso   1.000  C 
  C23      1.0000 0.71150  0.93088  0.75438  Biso   1.000  C 
  C24      1.0000 0.40035  0.24997  0.29839  Biso   1.000  C 
  C25      1.0000 0.32469  0.25001  0.25572  Biso   1.000  C 
  C26      1.0000 0.18071  0.25006  0.21901  Biso   1.000  C 
  C27      1.0000 0.21153  0.56909  0.74574  Biso   1.000  C 
  C28      1.0000 0.60460  0.24995  0.31735  Biso   1.000  C 
  C29      1.0000 0.10460  0.25006  0.18261  Biso   1.000  C 
  C30      1.0000 0.21694  0.43095  0.22781  Biso   1.000  C 
  C31      1.0000 0.28848  0.43095  0.24580  Biso   1.000  C 
  C32      1.0000 0.59964  0.74992  0.70183  Biso   1.000  C 
  H1       1.0000 0.68794  0.56971  0.28081  Biso   1.000  H 
  H2       1.0000 0.81202  0.06973  0.78087  Biso   1.000  H 
  H3       1.0000 0.81737  0.56990  0.24531  Biso   1.000  H 
  H4       1.0000 0.81742  0.93014  0.24545  Biso   1.000  H 
  H5       1.0000 0.18795  0.93031  0.21913  Biso   1.000  H 
  H6       1.0000 0.99913  0.25009  0.74295  Biso   1.000  H 
  H7       1.0000 0.31738  0.93016  0.25462  Biso   1.000  H 
  H8       1.0000 0.68258  0.06981  0.74552  Biso   1.000  H 
  H9       1.0000 0.68801  0.93024  0.28094  Biso   1.000  H 
  H10      1.0000 0.31205  0.43026  0.71933  Biso   1.000  H 
  H11      1.0000 0.31203  0.06975  0.71923  Biso   1.000  H 
  H12      1.0000 0.18261  0.43017  0.75466  Biso   1.000  H 
  H13      1.0000 0.81205  0.43026  0.78074  Biso   1.000  H 
  H14      1.0000 0.18262  0.06991  0.75458  Biso   1.000  H 
  H15      1.0000 0.31739  0.56988  0.25477  Biso   1.000  H 
  H16      1.0000 0.49910  0.24986  0.75701  Biso   1.000  H 
  H17      1.0000 0.18797  0.56979  0.21927  Biso   1.000  H 
  H18      1.0000 0.00091  0.75008  0.25661  Biso   1.000  H 
  H19      1.0000 0.68262  0.43006  0.74538  Biso   1.000  H 
  H20      1.0000 0.50090  0.74986  0.24324  Biso   1.000  H 
  O1       1.0000 0.07494  0.41872  0.16471  Biso   1.000  O 
  O2       1.0000 0.49844  0.24989  0.61719  Biso   1.000  O 
  O3       1.0000 0.42985  0.41848  0.31973  Biso   1.000  O 
  O4       1.0000 0.07014  0.58153  0.81936  Biso   1.000  O 
  O5       1.0000 0.92504  0.91871  0.83499  Biso   1.000  O 
  O6       1.0000 0.57014  0.91843  0.68052  Biso   1.000  O 
  O7       1.0000 0.57495  0.08127  0.33522  Biso   1.000  O 
  O8       1.0000 0.92507  0.58139  0.83501  Biso   1.000  O 
  O9       1.0000 0.57014  0.58140  0.68060  Biso   1.000  O 
  O10      1.0000 0.42985  0.08145  0.31964  Biso   1.000  O 
  O11      1.0000 0.92984  0.41859  0.18022  Biso   1.000  O 
  O12      1.0000 0.07495  0.08139  0.16466  Biso   1.000  O 
  O13      1.0000 0.42506  0.91864  0.66490  Biso   1.000  O 
  O14      1.0000 0.00158  0.75007  0.11680  Biso   1.000  O 
  O15      1.0000 0.07013  0.91855  0.81928  Biso   1.000  O 
  O16      1.0000 0.99844  0.25005  0.88276  Biso   1.000  O 
  O17      1.0000 0.50158  0.74991  0.38307  Biso   1.000  O 
  O18      1.0000 0.92986  0.08156  0.18024  Biso   1.000  O 
  O19      1.0000 0.57493  0.41858  0.33526  Biso   1.000  O 
  O20      1.0000 0.42506  0.58131  0.66501  Biso   1.000  O 
