data_image0
_cell_length_a       19.3749
_cell_length_b       6.6659
_cell_length_c       5.83889
_cell_angle_alpha    89.9998
_cell_angle_beta     89.9997
_cell_angle_gamma    90.0005

_symmetry_space_group_name_H-M    "P 1"
_symmetry_int_tables_number       1

loop_
  _symmetry_equiv_pos_as_xyz
  'x, y, z'

loop_
  _atom_site_label
  _atom_site_occupancy
  _atom_site_fract_x
  _atom_site_fract_y
  _atom_site_fract_z
  _atom_site_thermal_displace_type
  _atom_site_B_iso_or_equiv
  _atom_site_type_symbol
  Al1      1.0000 0.50000  0.49998  0.50005  Biso   1.000  Al
  Al2      1.0000 1.00000  0.50001  0.99999  Biso   1.000  Al
  Al3      1.0000 0.50000  0.99998  0.49995  Biso   1.000  Al
  Al4      1.0000 0.00000  0.00001  0.00002  Biso   1.000  Al
  C1       1.0000 0.17087  0.75002  0.71724  Biso   1.000  C 
  C2       1.0000 0.82912  0.25002  0.28276  Biso   1.000  C 
  C3       1.0000 0.72137  0.43184  0.28398  Biso   1.000  C 
  C4       1.0000 0.89137  0.74998  0.80746  Biso   1.000  C 
  C5       1.0000 0.20702  0.93192  0.71640  Biso   1.000  C 
  C6       1.0000 0.22137  0.06818  0.21602  Biso   1.000  C 
  C7       1.0000 0.90513  0.25000  0.25012  Biso   1.000  C 
  C8       1.0000 0.70702  0.56811  0.78360  Biso   1.000  C 
  C9       1.0000 0.27863  0.93184  0.71601  Biso   1.000  C 
  C10      1.0000 0.68519  0.25000  0.28400  Biso   1.000  C 
  C11      1.0000 0.81481  0.75001  0.78400  Biso   1.000  C 
  C12      1.0000 0.77863  0.56817  0.78398  Biso   1.000  C 
  C13      1.0000 0.29298  0.06811  0.21640  Biso   1.000  C 
  C14      1.0000 0.79298  0.43192  0.28360  Biso   1.000  C 
  C15      1.0000 0.27863  0.56817  0.71601  Biso   1.000  C 
  C16      1.0000 0.79298  0.06811  0.28360  Biso   1.000  C 
  C17      1.0000 0.39137  0.74999  0.69255  Biso   1.000  C 
  C18      1.0000 0.67088  0.75002  0.78276  Biso   1.000  C 
  C19      1.0000 0.72137  0.06817  0.28398  Biso   1.000  C 
  C20      1.0000 0.09487  0.75001  0.74989  Biso   1.000  C 
  C21      1.0000 0.31481  0.75000  0.71600  Biso   1.000  C 
  C22      1.0000 0.77863  0.93185  0.78398  Biso   1.000  C 
  C23      1.0000 0.70702  0.93192  0.78360  Biso   1.000  C 
  C24      1.0000 0.40513  0.24999  0.24988  Biso   1.000  C 
  C25      1.0000 0.32913  0.25001  0.21723  Biso   1.000  C 
  C26      1.0000 0.18519  0.25001  0.21600  Biso   1.000  C 
  C27      1.0000 0.20701  0.56812  0.71639  Biso   1.000  C 
  C28      1.0000 0.60863  0.24999  0.30746  Biso   1.000  C 
  C29      1.0000 0.10863  0.24999  0.19255  Biso   1.000  C 
  C30      1.0000 0.22137  0.43184  0.21602  Biso   1.000  C 
  C31      1.0000 0.29298  0.43192  0.21640  Biso   1.000  C 
  C32      1.0000 0.59487  0.75000  0.75013  Biso   1.000  C 
  H1       1.0000 0.69224  0.57125  0.28521  Biso   1.000  H 
  H2       1.0000 0.80777  0.07125  0.78522  Biso   1.000  H 
  H3       1.0000 0.82211  0.57136  0.28058  Biso   1.000  H 
  H4       1.0000 0.82212  0.92867  0.28059  Biso   1.000  H 
  H5       1.0000 0.19224  0.92877  0.21478  Biso   1.000  H 
  H6       1.0000 0.99737  0.25001  0.69531  Biso   1.000  H 
  H7       1.0000 0.32212  0.92866  0.21941  Biso   1.000  H 
  H8       1.0000 0.67789  0.07137  0.78058  Biso   1.000  H 
  H9       1.0000 0.69224  0.92876  0.28521  Biso   1.000  H 
  H10      1.0000 0.30776  0.42876  0.71478  Biso   1.000  H 
  H11      1.0000 0.30777  0.07124  0.71478  Biso   1.000  H 
  H12      1.0000 0.17788  0.42867  0.71940  Biso   1.000  H 
  H13      1.0000 0.80776  0.42876  0.78521  Biso   1.000  H 
  H14      1.0000 0.17789  0.07137  0.71942  Biso   1.000  H 
  H15      1.0000 0.32211  0.57136  0.21941  Biso   1.000  H 
  H16      1.0000 0.49738  0.24993  0.80468  Biso   1.000  H 
  H17      1.0000 0.19224  0.57125  0.21477  Biso   1.000  H 
  H18      1.0000 0.00263  0.75001  0.30470  Biso   1.000  H 
  H19      1.0000 0.67788  0.42866  0.78059  Biso   1.000  H 
  H20      1.0000 0.50263  0.74993  0.19532  Biso   1.000  H 
  O1       1.0000 0.07877  0.41969  0.17802  Biso   1.000  O 
  O2       1.0000 0.49531  0.24995  0.63884  Biso   1.000  O 
  O3       1.0000 0.43522  0.41914  0.26960  Biso   1.000  O 
  O4       1.0000 0.06478  0.58084  0.76954  Biso   1.000  O 
  O5       1.0000 0.92123  0.91969  0.82198  Biso   1.000  O 
  O6       1.0000 0.56478  0.91915  0.73040  Biso   1.000  O 
  O7       1.0000 0.57877  0.08028  0.32193  Biso   1.000  O 
  O8       1.0000 0.92123  0.58026  0.82196  Biso   1.000  O 
  O9       1.0000 0.56477  0.58084  0.73051  Biso   1.000  O 
  O10      1.0000 0.43522  0.08082  0.26950  Biso   1.000  O 
  O11      1.0000 0.93523  0.41915  0.23043  Biso   1.000  O 
  O12      1.0000 0.07877  0.08027  0.17805  Biso   1.000  O 
  O13      1.0000 0.42123  0.91969  0.67801  Biso   1.000  O 
  O14      1.0000 0.00469  0.74999  0.13885  Biso   1.000  O 
  O15      1.0000 0.06478  0.91916  0.76958  Biso   1.000  O 
  O16      1.0000 0.99531  0.24999  0.86116  Biso   1.000  O 
  O17      1.0000 0.50469  0.74995  0.36117  Biso   1.000  O 
  O18      1.0000 0.93522  0.08084  0.23046  Biso   1.000  O 
  O19      1.0000 0.57877  0.41970  0.32200  Biso   1.000  O 
  O20      1.0000 0.42123  0.58027  0.67806  Biso   1.000  O 
