data_image0
_cell_length_a       17.5592
_cell_length_b       6.6944
_cell_length_c       11.7782
_cell_angle_alpha    89.9999
_cell_angle_beta     89.9999
_cell_angle_gamma    89.9998

_symmetry_space_group_name_H-M    "P 1"
_symmetry_int_tables_number       1

loop_
  _symmetry_equiv_pos_as_xyz
  'x, y, z'

loop_
  _atom_site_label
  _atom_site_occupancy
  _atom_site_fract_x
  _atom_site_fract_y
  _atom_site_fract_z
  _atom_site_thermal_displace_type
  _atom_site_B_iso_or_equiv
  _atom_site_type_symbol
  Al1      1.0000 0.50000  0.50000  0.50000  Biso   1.000  Al
  Al2      1.0000 1.00000  0.50000  1.00000  Biso   1.000  Al
  Al3      1.0000 0.50000  1.00000  0.50000  Biso   1.000  Al
  Al4      1.0000 1.00000  1.00000  0.00000  Biso   1.000  Al
  C1       1.0000 0.17179  0.75001  0.79101  Biso   1.000  C 
  C2       1.0000 0.82821  0.25000  0.20899  Biso   1.000  C 
  C3       1.0000 0.72423  0.43128  0.29596  Biso   1.000  C 
  C4       1.0000 0.88605  0.75000  0.88417  Biso   1.000  C 
  C5       1.0000 0.20653  0.93130  0.76135  Biso   1.000  C 
  C6       1.0000 0.22423  0.06873  0.20405  Biso   1.000  C 
  C7       1.0000 0.90019  0.25000  0.14127  Biso   1.000  C 
  C8       1.0000 0.70654  0.56871  0.73866  Biso   1.000  C 
  C9       1.0000 0.27577  0.93127  0.70405  Biso   1.000  C 
  C10      1.0000 0.68887  0.25001  0.32412  Biso   1.000  C 
  C11      1.0000 0.81113  0.74999  0.82412  Biso   1.000  C 
  C12      1.0000 0.77577  0.56872  0.79596  Biso   1.000  C 
  C13      1.0000 0.29346  0.06871  0.26135  Biso   1.000  C 
  C14      1.0000 0.79346  0.43129  0.23865  Biso   1.000  C 
  C15      1.0000 0.27577  0.56872  0.70404  Biso   1.000  C 
  C16      1.0000 0.79347  0.06870  0.23865  Biso   1.000  C 
  C17      1.0000 0.38605  0.75000  0.61583  Biso   1.000  C 
  C18      1.0000 0.67179  0.75001  0.70899  Biso   1.000  C 
  C19      1.0000 0.72423  0.06873  0.29595  Biso   1.000  C 
  C20      1.0000 0.09981  0.75000  0.85873  Biso   1.000  C 
  C21      1.0000 0.31113  0.74999  0.67588  Biso   1.000  C 
  C22      1.0000 0.77576  0.93126  0.79595  Biso   1.000  C 
  C23      1.0000 0.70653  0.93130  0.73865  Biso   1.000  C 
  C24      1.0000 0.40019  0.24999  0.35873  Biso   1.000  C 
  C25      1.0000 0.32821  0.25001  0.29101  Biso   1.000  C 
  C26      1.0000 0.18887  0.25000  0.17588  Biso   1.000  C 
  C27      1.0000 0.20654  0.56871  0.76135  Biso   1.000  C 
  C28      1.0000 0.61395  0.25001  0.38417  Biso   1.000  C 
  C29      1.0000 0.11395  0.25000  0.11583  Biso   1.000  C 
  C30      1.0000 0.22424  0.43127  0.20405  Biso   1.000  C 
  C31      1.0000 0.29347  0.43130  0.26135  Biso   1.000  C 
  C32      1.0000 0.59981  0.75000  0.64127  Biso   1.000  C 
  H1       1.0000 0.69630  0.57052  0.31948  Biso   1.000  H 
  H2       1.0000 0.80371  0.07053  0.81948  Biso   1.000  H 
  H3       1.0000 0.82143  0.57035  0.21480  Biso   1.000  H 
  H4       1.0000 0.82142  0.92965  0.21480  Biso   1.000  H 
  H5       1.0000 0.19630  0.92949  0.18052  Biso   1.000  H 
  H6       1.0000 0.98117  0.25000  0.85233  Biso   1.000  H 
  H7       1.0000 0.32143  0.92965  0.28520  Biso   1.000  H 
  H8       1.0000 0.67858  0.07034  0.71480  Biso   1.000  H 
  H9       1.0000 0.69629  0.92948  0.31948  Biso   1.000  H 
  H10      1.0000 0.30370  0.42948  0.68052  Biso   1.000  H 
  H11      1.0000 0.30371  0.07052  0.68052  Biso   1.000  H 
  H12      1.0000 0.17857  0.42965  0.78520  Biso   1.000  H 
  H13      1.0000 0.80370  0.42949  0.81948  Biso   1.000  H 
  H14      1.0000 0.17858  0.07035  0.78520  Biso   1.000  H 
  H15      1.0000 0.32142  0.57035  0.28520  Biso   1.000  H 
  H16      1.0000 0.48117  0.25000  0.64767  Biso   1.000  H 
  H17      1.0000 0.19629  0.57052  0.18052  Biso   1.000  H 
  H18      1.0000 0.01883  0.74999  0.14767  Biso   1.000  H 
  H19      1.0000 0.67857  0.42964  0.71480  Biso   1.000  H 
  H20      1.0000 0.51883  0.75000  0.35233  Biso   1.000  H 
  O1       1.0000 0.08461  0.41926  0.09262  Biso   1.000  O 
  O2       1.0000 0.49550  0.25000  0.56834  Biso   1.000  O 
  O3       1.0000 0.42788  0.41939  0.38573  Biso   1.000  O 
  O4       1.0000 0.07212  0.58061  0.88574  Biso   1.000  O 
  O5       1.0000 0.91539  0.91926  0.90738  Biso   1.000  O 
  O6       1.0000 0.57212  0.91940  0.61426  Biso   1.000  O 
  O7       1.0000 0.58461  0.08075  0.40738  Biso   1.000  O 
  O8       1.0000 0.91539  0.58074  0.90738  Biso   1.000  O 
  O9       1.0000 0.57212  0.58061  0.61427  Biso   1.000  O 
  O10      1.0000 0.42788  0.08060  0.38574  Biso   1.000  O 
  O11      1.0000 0.92788  0.41939  0.11426  Biso   1.000  O 
  O12      1.0000 0.08461  0.08074  0.09262  Biso   1.000  O 
  O13      1.0000 0.41539  0.91925  0.59262  Biso   1.000  O 
  O14      1.0000 0.00450  0.75000  0.06834  Biso   1.000  O 
  O15      1.0000 0.07212  0.91940  0.88574  Biso   1.000  O 
  O16      1.0000 0.99550  0.25000  0.93166  Biso   1.000  O 
  O17      1.0000 0.50450  0.75000  0.43166  Biso   1.000  O 
  O18      1.0000 0.92788  0.08060  0.11426  Biso   1.000  O 
  O19      1.0000 0.58461  0.41926  0.40738  Biso   1.000  O 
  O20      1.0000 0.41539  0.58074  0.59262  Biso   1.000  O 
