data_image0
_cell_length_a       19.3827
_cell_length_b       6.70102
_cell_length_c       6.34952
_cell_angle_alpha    89.9999
_cell_angle_beta     90.0006
_cell_angle_gamma    89.9999

_symmetry_space_group_name_H-M    "P 1"
_symmetry_int_tables_number       1

loop_
  _symmetry_equiv_pos_as_xyz
  'x, y, z'

loop_
  _atom_site_label
  _atom_site_occupancy
  _atom_site_fract_x
  _atom_site_fract_y
  _atom_site_fract_z
  _atom_site_thermal_displace_type
  _atom_site_B_iso_or_equiv
  _atom_site_type_symbol
  Al1      1.0000 0.50000  0.50000  0.50003  Biso   1.000  Al
  Al2      1.0000 0.00000  0.50001  0.99997  Biso   1.000  Al
  Al3      1.0000 0.50000  0.00000  0.50003  Biso   1.000  Al
  Al4      1.0000 1.00000  0.00002  0.99998  Biso   1.000  Al
  C1       1.0000 0.17149  0.75000  0.72807  Biso   1.000  C 
  C2       1.0000 0.82851  0.25000  0.27191  Biso   1.000  C 
  C3       1.0000 0.72067  0.43100  0.28645  Biso   1.000  C 
  C4       1.0000 0.89210  0.75001  0.81812  Biso   1.000  C 
  C5       1.0000 0.20772  0.93101  0.72220  Biso   1.000  C 
  C6       1.0000 0.22067  0.06899  0.21354  Biso   1.000  C 
  C7       1.0000 0.90425  0.25001  0.23110  Biso   1.000  C 
  C8       1.0000 0.70773  0.56898  0.77780  Biso   1.000  C 
  C9       1.0000 0.27933  0.93101  0.71355  Biso   1.000  C 
  C10      1.0000 0.68440  0.25000  0.29017  Biso   1.000  C 
  C11      1.0000 0.81560  0.75000  0.79015  Biso   1.000  C 
  C12      1.0000 0.77933  0.56899  0.78644  Biso   1.000  C 
  C13      1.0000 0.29228  0.06899  0.22220  Biso   1.000  C 
  C14      1.0000 0.79227  0.43101  0.27778  Biso   1.000  C 
  C15      1.0000 0.27933  0.56900  0.71356  Biso   1.000  C 
  C16      1.0000 0.79228  0.06899  0.27778  Biso   1.000  C 
  C17      1.0000 0.39210  0.75000  0.68188  Biso   1.000  C 
  C18      1.0000 0.67149  0.74999  0.77193  Biso   1.000  C 
  C19      1.0000 0.72067  0.06900  0.28645  Biso   1.000  C 
  C20      1.0000 0.09575  0.75000  0.76886  Biso   1.000  C 
  C21      1.0000 0.31560  0.75000  0.70985  Biso   1.000  C 
  C22      1.0000 0.77933  0.93100  0.78644  Biso   1.000  C 
  C23      1.0000 0.70772  0.93101  0.77779  Biso   1.000  C 
  C24      1.0000 0.40425  0.24999  0.26889  Biso   1.000  C 
  C25      1.0000 0.32851  0.25000  0.22808  Biso   1.000  C 
  C26      1.0000 0.18440  0.24999  0.20983  Biso   1.000  C 
  C27      1.0000 0.20772  0.56899  0.72220  Biso   1.000  C 
  C28      1.0000 0.60790  0.24999  0.31816  Biso   1.000  C 
  C29      1.0000 0.10790  0.25001  0.18185  Biso   1.000  C 
  C30      1.0000 0.22067  0.43100  0.21355  Biso   1.000  C 
  C31      1.0000 0.29228  0.43101  0.22221  Biso   1.000  C 
  C32      1.0000 0.59575  0.74999  0.73115  Biso   1.000  C 
  H1       1.0000 0.69165  0.56995  0.29110  Biso   1.000  H 
  H2       1.0000 0.80834  0.06995  0.79108  Biso   1.000  H 
  H3       1.0000 0.82126  0.56999  0.27184  Biso   1.000  H 
  H4       1.0000 0.82126  0.93002  0.27184  Biso   1.000  H 
  H5       1.0000 0.19166  0.93005  0.20889  Biso   1.000  H 
  H6       1.0000 0.99571  0.25001  0.72008  Biso   1.000  H 
  H7       1.0000 0.32126  0.93001  0.22814  Biso   1.000  H 
  H8       1.0000 0.67873  0.06997  0.77186  Biso   1.000  H 
  H9       1.0000 0.69166  0.93005  0.29109  Biso   1.000  H 
  H10      1.0000 0.30835  0.43005  0.70892  Biso   1.000  H 
  H11      1.0000 0.30834  0.06995  0.70891  Biso   1.000  H 
  H12      1.0000 0.17874  0.43002  0.72814  Biso   1.000  H 
  H13      1.0000 0.80835  0.43006  0.79108  Biso   1.000  H 
  H14      1.0000 0.17874  0.06998  0.72813  Biso   1.000  H 
  H15      1.0000 0.32126  0.56997  0.22815  Biso   1.000  H 
  H16      1.0000 0.49571  0.25000  0.77993  Biso   1.000  H 
  H17      1.0000 0.19165  0.56995  0.20890  Biso   1.000  H 
  H18      1.0000 0.00426  0.75001  0.27988  Biso   1.000  H 
  H19      1.0000 0.67874  0.43000  0.77186  Biso   1.000  H 
  H20      1.0000 0.50427  0.75000  0.22013  Biso   1.000  H 
  O1       1.0000 0.07807  0.41886  0.16661  Biso   1.000  O 
  O2       1.0000 0.49593  0.24999  0.62737  Biso   1.000  O 
  O3       1.0000 0.43395  0.41848  0.29097  Biso   1.000  O 
  O4       1.0000 0.06605  0.58152  0.79093  Biso   1.000  O 
  O5       1.0000 0.92193  0.91888  0.83336  Biso   1.000  O 
  O6       1.0000 0.56605  0.91848  0.70908  Biso   1.000  O 
  O7       1.0000 0.57807  0.08112  0.33340  Biso   1.000  O 
  O8       1.0000 0.92193  0.58115  0.83334  Biso   1.000  O 
  O9       1.0000 0.56605  0.58149  0.70908  Biso   1.000  O 
  O10      1.0000 0.43395  0.08151  0.29096  Biso   1.000  O 
  O11      1.0000 0.93395  0.41850  0.20902  Biso   1.000  O 
  O12      1.0000 0.07807  0.08114  0.16662  Biso   1.000  O 
  O13      1.0000 0.42193  0.91886  0.66664  Biso   1.000  O 
  O14      1.0000 0.00407  0.75001  0.12732  Biso   1.000  O 
  O15      1.0000 0.06605  0.91850  0.79094  Biso   1.000  O 
  O16      1.0000 0.99593  0.25001  0.87264  Biso   1.000  O 
  O17      1.0000 0.50407  0.74999  0.37269  Biso   1.000  O 
  O18      1.0000 0.93395  0.08152  0.20904  Biso   1.000  O 
  O19      1.0000 0.57807  0.41885  0.33339  Biso   1.000  O 
  O20      1.0000 0.42193  0.58113  0.66666  Biso   1.000  O 
