data_image0
_cell_length_a       18.9081
_cell_length_b       6.70811
_cell_length_c       8.7679
_cell_angle_alpha    89.9971
_cell_angle_beta     89.9997
_cell_angle_gamma    89.9978

_symmetry_space_group_name_H-M    "P 1"
_symmetry_int_tables_number       1

loop_
  _symmetry_equiv_pos_as_xyz
  'x, y, z'

loop_
  _atom_site_label
  _atom_site_occupancy
  _atom_site_fract_x
  _atom_site_fract_y
  _atom_site_fract_z
  _atom_site_thermal_displace_type
  _atom_site_B_iso_or_equiv
  _atom_site_type_symbol
  Al1      1.0000 0.50000  0.50000  0.50000  Biso   1.000  Al
  Al2      1.0000 0.00000  0.50000  0.00001  Biso   1.000  Al
  Al3      1.0000 0.50000  1.00000  0.50000  Biso   1.000  Al
  Al4      1.0000 0.00000  0.00000  0.00001  Biso   1.000  Al
  C1       1.0000 0.17399  0.75000  0.77633  Biso   1.000  C 
  C2       1.0000 0.82601  0.25000  0.22367  Biso   1.000  C 
  C3       1.0000 0.71882  0.43095  0.28367  Biso   1.000  C 
  C4       1.0000 0.89293  0.75002  0.85226  Biso   1.000  C 
  C5       1.0000 0.20998  0.93098  0.75604  Biso   1.000  C 
  C6       1.0000 0.21884  0.06905  0.21632  Biso   1.000  C 
  C7       1.0000 0.90094  0.25000  0.16966  Biso   1.000  C 
  C8       1.0000 0.71000  0.56901  0.74393  Biso   1.000  C 
  C9       1.0000 0.28117  0.93095  0.71632  Biso   1.000  C 
  C10      1.0000 0.68273  0.25000  0.30318  Biso   1.000  C 
  C11      1.0000 0.81727  0.74999  0.80317  Biso   1.000  C 
  C12      1.0000 0.78118  0.56905  0.78366  Biso   1.000  C 
  C13      1.0000 0.29002  0.06903  0.25605  Biso   1.000  C 
  C14      1.0000 0.79001  0.43098  0.24395  Biso   1.000  C 
  C15      1.0000 0.28117  0.56905  0.71632  Biso   1.000  C 
  C16      1.0000 0.79001  0.06902  0.24396  Biso   1.000  C 
  C17      1.0000 0.39293  0.75000  0.64774  Biso   1.000  C 
  C18      1.0000 0.67399  0.74998  0.72364  Biso   1.000  C 
  C19      1.0000 0.71883  0.06905  0.28368  Biso   1.000  C 
  C20      1.0000 0.09906  0.75000  0.83035  Biso   1.000  C 
  C21      1.0000 0.31727  0.75000  0.69682  Biso   1.000  C 
  C22      1.0000 0.78117  0.93095  0.78367  Biso   1.000  C 
  C23      1.0000 0.70998  0.93097  0.74393  Biso   1.000  C 
  C24      1.0000 0.40094  0.25004  0.33036  Biso   1.000  C 
  C25      1.0000 0.32601  0.25003  0.27634  Biso   1.000  C 
  C26      1.0000 0.18273  0.25001  0.19683  Biso   1.000  C 
  C27      1.0000 0.20999  0.56902  0.75605  Biso   1.000  C 
  C28      1.0000 0.60707  0.24999  0.35226  Biso   1.000  C 
  C29      1.0000 0.10707  0.24999  0.14775  Biso   1.000  C 
  C30      1.0000 0.21882  0.43095  0.21633  Biso   1.000  C 
  C31      1.0000 0.29001  0.43099  0.25606  Biso   1.000  C 
  C32      1.0000 0.59906  0.74996  0.66964  Biso   1.000  C 
  H1       1.0000 0.69003  0.56979  0.30065  Biso   1.000  H 
  H2       1.0000 0.80996  0.06980  0.80065  Biso   1.000  H 
  H3       1.0000 0.81879  0.56979  0.22663  Biso   1.000  H 
  H4       1.0000 0.81880  0.93020  0.22665  Biso   1.000  H 
  H5       1.0000 0.19004  0.93021  0.19934  Biso   1.000  H 
  H6       1.0000 0.99173  0.25002  0.79788  Biso   1.000  H 
  H7       1.0000 0.31881  0.93022  0.27336  Biso   1.000  H 
  H8       1.0000 0.68119  0.06977  0.72662  Biso   1.000  H 
  H9       1.0000 0.69003  0.93020  0.30067  Biso   1.000  H 
  H10      1.0000 0.30997  0.43020  0.69933  Biso   1.000  H 
  H11      1.0000 0.30997  0.06979  0.69933  Biso   1.000  H 
  H12      1.0000 0.18120  0.43021  0.77335  Biso   1.000  H 
  H13      1.0000 0.80999  0.43021  0.80064  Biso   1.000  H 
  H14      1.0000 0.18120  0.06980  0.77335  Biso   1.000  H 
  H15      1.0000 0.31879  0.56982  0.27337  Biso   1.000  H 
  H16      1.0000 0.49172  0.24999  0.70213  Biso   1.000  H 
  H17      1.0000 0.19002  0.56979  0.19935  Biso   1.000  H 
  H18      1.0000 0.00829  0.74999  0.20213  Biso   1.000  H 
  H19      1.0000 0.68122  0.43017  0.72662  Biso   1.000  H 
  H20      1.0000 0.50825  0.75001  0.29787  Biso   1.000  H 
  O1       1.0000 0.07765  0.41877  0.12713  Biso   1.000  O 
  O2       1.0000 0.49725  0.24999  0.59239  Biso   1.000  O 
  O3       1.0000 0.42998  0.41874  0.35367  Biso   1.000  O 
  O4       1.0000 0.07001  0.58128  0.85366  Biso   1.000  O 
  O5       1.0000 0.92234  0.91880  0.87291  Biso   1.000  O 
  O6       1.0000 0.57000  0.91867  0.64636  Biso   1.000  O 
  O7       1.0000 0.57766  0.08120  0.37291  Biso   1.000  O 
  O8       1.0000 0.92235  0.58123  0.87289  Biso   1.000  O 
  O9       1.0000 0.57002  0.58125  0.64633  Biso   1.000  O 
  O10      1.0000 0.43000  0.08132  0.35364  Biso   1.000  O 
  O11      1.0000 0.92999  0.41872  0.14635  Biso   1.000  O 
  O12      1.0000 0.07766  0.08120  0.12711  Biso   1.000  O 
  O13      1.0000 0.42234  0.91879  0.62710  Biso   1.000  O 
  O14      1.0000 0.00275  0.75000  0.09239  Biso   1.000  O 
  O15      1.0000 0.07000  0.91871  0.85364  Biso   1.000  O 
  O16      1.0000 0.99725  0.25001  0.90763  Biso   1.000  O 
  O17      1.0000 0.50275  0.75000  0.40762  Biso   1.000  O 
  O18      1.0000 0.93000  0.08129  0.14636  Biso   1.000  O 
  O19      1.0000 0.57765  0.41877  0.37287  Biso   1.000  O 
  O20      1.0000 0.42235  0.58123  0.62713  Biso   1.000  O 
