data_image0
_cell_length_a       19.0217
_cell_length_b       6.70584
_cell_length_c       8.39898
_cell_angle_alpha    89.9992
_cell_angle_beta     90.0002
_cell_angle_gamma    89.9986

_symmetry_space_group_name_H-M    "P 1"
_symmetry_int_tables_number       1

loop_
  _symmetry_equiv_pos_as_xyz
  'x, y, z'

loop_
  _atom_site_label
  _atom_site_occupancy
  _atom_site_fract_x
  _atom_site_fract_y
  _atom_site_fract_z
  _atom_site_thermal_displace_type
  _atom_site_B_iso_or_equiv
  _atom_site_type_symbol
  Al1      1.0000 0.50000  0.50000  0.50000  Biso   1.000  Al
  Al2      1.0000 0.00000  0.49999  0.00001  Biso   1.000  Al
  Al3      1.0000 0.50001  0.00000  0.50000  Biso   1.000  Al
  Al4      1.0000 1.00000  0.99999  0.00001  Biso   1.000  Al
  C1       1.0000 0.17417  0.74999  0.77273  Biso   1.000  C 
  C2       1.0000 0.82583  0.25001  0.22728  Biso   1.000  C 
  C3       1.0000 0.71850  0.43106  0.28266  Biso   1.000  C 
  C4       1.0000 0.89348  0.75000  0.84683  Biso   1.000  C 
  C5       1.0000 0.21021  0.93105  0.75382  Biso   1.000  C 
  C6       1.0000 0.21850  0.06895  0.21732  Biso   1.000  C 
  C7       1.0000 0.90086  0.25001  0.17486  Biso   1.000  C 
  C8       1.0000 0.71022  0.56896  0.74617  Biso   1.000  C 
  C9       1.0000 0.28150  0.93104  0.71731  Biso   1.000  C 
  C10      1.0000 0.68235  0.25001  0.30033  Biso   1.000  C 
  C11      1.0000 0.81765  0.75000  0.80033  Biso   1.000  C 
  C12      1.0000 0.78151  0.56897  0.78266  Biso   1.000  C 
  C13      1.0000 0.28979  0.06893  0.25382  Biso   1.000  C 
  C14      1.0000 0.78979  0.43108  0.24617  Biso   1.000  C 
  C15      1.0000 0.28150  0.56895  0.71732  Biso   1.000  C 
  C16      1.0000 0.78979  0.06896  0.24619  Biso   1.000  C 
  C17      1.0000 0.39347  0.75000  0.65318  Biso   1.000  C 
  C18      1.0000 0.67417  0.75001  0.72727  Biso   1.000  C 
  C19      1.0000 0.71850  0.06897  0.28269  Biso   1.000  C 
  C20      1.0000 0.09914  0.75000  0.82516  Biso   1.000  C 
  C21      1.0000 0.31765  0.75000  0.69966  Biso   1.000  C 
  C22      1.0000 0.78150  0.93104  0.78267  Biso   1.000  C 
  C23      1.0000 0.71021  0.93107  0.74617  Biso   1.000  C 
  C24      1.0000 0.40087  0.25001  0.32515  Biso   1.000  C 
  C25      1.0000 0.32583  0.24999  0.27272  Biso   1.000  C 
  C26      1.0000 0.18235  0.24999  0.19967  Biso   1.000  C 
  C27      1.0000 0.21021  0.56892  0.75383  Biso   1.000  C 
  C28      1.0000 0.60653  0.25001  0.34681  Biso   1.000  C 
  C29      1.0000 0.10652  0.24999  0.15319  Biso   1.000  C 
  C30      1.0000 0.21849  0.43102  0.21732  Biso   1.000  C 
  C31      1.0000 0.28978  0.43104  0.25382  Biso   1.000  C 
  C32      1.0000 0.59913  0.74999  0.67484  Biso   1.000  C 
  H1       1.0000 0.68962  0.56992  0.29844  Biso   1.000  H 
  H2       1.0000 0.81037  0.06992  0.79845  Biso   1.000  H 
  H3       1.0000 0.81857  0.57004  0.23016  Biso   1.000  H 
  H4       1.0000 0.81858  0.92998  0.23017  Biso   1.000  H 
  H5       1.0000 0.18963  0.93006  0.20153  Biso   1.000  H 
  H6       1.0000 0.99504  0.25002  0.78855  Biso   1.000  H 
  H7       1.0000 0.31858  0.92996  0.26982  Biso   1.000  H 
  H8       1.0000 0.68142  0.07004  0.73017  Biso   1.000  H 
  H9       1.0000 0.68963  0.93011  0.29846  Biso   1.000  H 
  H10      1.0000 0.31038  0.43009  0.70154  Biso   1.000  H 
  H11      1.0000 0.31038  0.06990  0.70154  Biso   1.000  H 
  H12      1.0000 0.18143  0.42996  0.76985  Biso   1.000  H 
  H13      1.0000 0.81039  0.43012  0.79844  Biso   1.000  H 
  H14      1.0000 0.18143  0.07002  0.76984  Biso   1.000  H 
  H15      1.0000 0.31857  0.57001  0.26983  Biso   1.000  H 
  H16      1.0000 0.49505  0.24999  0.71147  Biso   1.000  H 
  H17      1.0000 0.18961  0.56988  0.20155  Biso   1.000  H 
  H18      1.0000 0.00496  0.74997  0.21147  Biso   1.000  H 
  H19      1.0000 0.68143  0.42999  0.73017  Biso   1.000  H 
  H20      1.0000 0.50491  0.75001  0.28852  Biso   1.000  H 
  O1       1.0000 0.07705  0.41883  0.13329  Biso   1.000  O 
  O2       1.0000 0.49758  0.24999  0.59639  Biso   1.000  O 
  O3       1.0000 0.43001  0.41870  0.34822  Biso   1.000  O 
  O4       1.0000 0.06999  0.58131  0.84822  Biso   1.000  O 
  O5       1.0000 0.92294  0.91885  0.86675  Biso   1.000  O 
  O6       1.0000 0.56998  0.91867  0.65181  Biso   1.000  O 
  O7       1.0000 0.57706  0.08117  0.36673  Biso   1.000  O 
  O8       1.0000 0.92296  0.58118  0.86672  Biso   1.000  O 
  O9       1.0000 0.56999  0.58130  0.65178  Biso   1.000  O 
  O10      1.0000 0.43003  0.08132  0.34817  Biso   1.000  O 
  O11      1.0000 0.93000  0.41869  0.15179  Biso   1.000  O 
  O12      1.0000 0.07706  0.08115  0.13326  Biso   1.000  O 
  O13      1.0000 0.42294  0.91885  0.63327  Biso   1.000  O 
  O14      1.0000 0.00242  0.74999  0.09639  Biso   1.000  O 
  O15      1.0000 0.06998  0.91868  0.84820  Biso   1.000  O 
  O16      1.0000 0.99757  0.25000  0.90363  Biso   1.000  O 
  O17      1.0000 0.50243  0.75001  0.40361  Biso   1.000  O 
  O18      1.0000 0.93002  0.08132  0.15182  Biso   1.000  O 
  O19      1.0000 0.57705  0.41884  0.36672  Biso   1.000  O 
  O20      1.0000 0.42295  0.58117  0.63328  Biso   1.000  O 
