data_image0
_cell_length_a       18.7339
_cell_length_b       6.70267
_cell_length_c       9.27558
_cell_angle_alpha    89.9986
_cell_angle_beta     89.9997
_cell_angle_gamma    89.9994

_symmetry_space_group_name_H-M    "P 1"
_symmetry_int_tables_number       1

loop_
  _symmetry_equiv_pos_as_xyz
  'x, y, z'

loop_
  _atom_site_label
  _atom_site_occupancy
  _atom_site_fract_x
  _atom_site_fract_y
  _atom_site_fract_z
  _atom_site_thermal_displace_type
  _atom_site_B_iso_or_equiv
  _atom_site_type_symbol
  Al1      1.0000 0.50000  0.50000  0.49999  Biso   1.000  Al
  Al2      1.0000 0.00000  0.49999  0.99999  Biso   1.000  Al
  Al3      1.0000 0.50000  0.99999  0.50000  Biso   1.000  Al
  Al4      1.0000 0.00000  0.00001  0.99999  Biso   1.000  Al
  C1       1.0000 0.17382  0.75000  0.77993  Biso   1.000  C 
  C2       1.0000 0.82619  0.25000  0.22007  Biso   1.000  C 
  C3       1.0000 0.71926  0.43110  0.28573  Biso   1.000  C 
  C4       1.0000 0.89231  0.75002  0.85850  Biso   1.000  C 
  C5       1.0000 0.20970  0.93111  0.75767  Biso   1.000  C 
  C6       1.0000 0.21926  0.06888  0.21428  Biso   1.000  C 
  C7       1.0000 0.90079  0.25000  0.16317  Biso   1.000  C 
  C8       1.0000 0.70970  0.56888  0.74233  Biso   1.000  C 
  C9       1.0000 0.28074  0.93113  0.71428  Biso   1.000  C 
  C10      1.0000 0.68322  0.24998  0.30705  Biso   1.000  C 
  C11      1.0000 0.81678  0.75000  0.80705  Biso   1.000  C 
  C12      1.0000 0.78074  0.56889  0.78573  Biso   1.000  C 
  C13      1.0000 0.29030  0.06889  0.25769  Biso   1.000  C 
  C14      1.0000 0.79030  0.43111  0.24233  Biso   1.000  C 
  C15      1.0000 0.28074  0.56890  0.71428  Biso   1.000  C 
  C16      1.0000 0.79031  0.06889  0.24234  Biso   1.000  C 
  C17      1.0000 0.39231  0.75001  0.64150  Biso   1.000  C 
  C18      1.0000 0.67382  0.75000  0.72007  Biso   1.000  C 
  C19      1.0000 0.71926  0.06887  0.28574  Biso   1.000  C 
  C20      1.0000 0.09921  0.75000  0.83683  Biso   1.000  C 
  C21      1.0000 0.31679  0.75001  0.69295  Biso   1.000  C 
  C22      1.0000 0.78073  0.93112  0.78573  Biso   1.000  C 
  C23      1.0000 0.70969  0.93111  0.74232  Biso   1.000  C 
  C24      1.0000 0.40079  0.25002  0.33684  Biso   1.000  C 
  C25      1.0000 0.32618  0.25000  0.27994  Biso   1.000  C 
  C26      1.0000 0.18321  0.25000  0.19296  Biso   1.000  C 
  C27      1.0000 0.20970  0.56889  0.75768  Biso   1.000  C 
  C28      1.0000 0.60769  0.24998  0.35850  Biso   1.000  C 
  C29      1.0000 0.10769  0.24998  0.14150  Biso   1.000  C 
  C30      1.0000 0.21925  0.43112  0.21428  Biso   1.000  C 
  C31      1.0000 0.29029  0.43111  0.25769  Biso   1.000  C 
  C32      1.0000 0.59921  0.74998  0.66316  Biso   1.000  C 
  H1       1.0000 0.69056  0.57016  0.30391  Biso   1.000  H 
  H2       1.0000 0.80943  0.07019  0.80392  Biso   1.000  H 
  H3       1.0000 0.81905  0.56997  0.22358  Biso   1.000  H 
  H4       1.0000 0.81906  0.93002  0.22360  Biso   1.000  H 
  H5       1.0000 0.19057  0.92981  0.19610  Biso   1.000  H 
  H6       1.0000 0.98683  0.25001  0.81049  Biso   1.000  H 
  H7       1.0000 0.31905  0.93005  0.27643  Biso   1.000  H 
  H8       1.0000 0.68094  0.06995  0.72358  Biso   1.000  H 
  H9       1.0000 0.69057  0.92982  0.30393  Biso   1.000  H 
  H10      1.0000 0.30944  0.42983  0.69609  Biso   1.000  H 
  H11      1.0000 0.30943  0.07018  0.69608  Biso   1.000  H 
  H12      1.0000 0.18095  0.43004  0.77642  Biso   1.000  H 
  H13      1.0000 0.80944  0.42985  0.80392  Biso   1.000  H 
  H14      1.0000 0.18095  0.06997  0.77641  Biso   1.000  H 
  H15      1.0000 0.31904  0.56998  0.27643  Biso   1.000  H 
  H16      1.0000 0.48684  0.25001  0.68950  Biso   1.000  H 
  H17      1.0000 0.19056  0.57016  0.19609  Biso   1.000  H 
  H18      1.0000 0.01317  0.74999  0.18949  Biso   1.000  H 
  H19      1.0000 0.68096  0.43001  0.72357  Biso   1.000  H 
  H20      1.0000 0.51316  0.75002  0.31048  Biso   1.000  H 
  O1       1.0000 0.07827  0.41889  0.12025  Biso   1.000  O 
  O2       1.0000 0.49718  0.25000  0.58728  Biso   1.000  O 
  O3       1.0000 0.42961  0.41894  0.36091  Biso   1.000  O 
  O4       1.0000 0.07038  0.58107  0.86090  Biso   1.000  O 
  O5       1.0000 0.92173  0.91892  0.87974  Biso   1.000  O 
  O6       1.0000 0.57038  0.91890  0.63909  Biso   1.000  O 
  O7       1.0000 0.57828  0.08108  0.37975  Biso   1.000  O 
  O8       1.0000 0.92173  0.58111  0.87973  Biso   1.000  O 
  O9       1.0000 0.57039  0.58106  0.63907  Biso   1.000  O 
  O10      1.0000 0.42962  0.08109  0.36091  Biso   1.000  O 
  O11      1.0000 0.92962  0.41893  0.13909  Biso   1.000  O 
  O12      1.0000 0.07827  0.08109  0.12025  Biso   1.000  O 
  O13      1.0000 0.42173  0.91891  0.62025  Biso   1.000  O 
  O14      1.0000 0.00282  0.75000  0.08727  Biso   1.000  O 
  O15      1.0000 0.07038  0.91892  0.86089  Biso   1.000  O 
  O16      1.0000 0.99718  0.25001  0.91270  Biso   1.000  O 
  O17      1.0000 0.50282  0.75000  0.41271  Biso   1.000  O 
  O18      1.0000 0.92962  0.08109  0.13909  Biso   1.000  O 
  O19      1.0000 0.57827  0.41888  0.37973  Biso   1.000  O 
  O20      1.0000 0.42173  0.58111  0.62026  Biso   1.000  O 
