data_image0
_cell_length_a       19.3896
_cell_length_b       6.68865
_cell_length_c       6.15851
_cell_angle_alpha    89.9985
_cell_angle_beta     90
_cell_angle_gamma    89.9995

_symmetry_space_group_name_H-M    "P 1"
_symmetry_int_tables_number       1

loop_
  _symmetry_equiv_pos_as_xyz
  'x, y, z'

loop_
  _atom_site_label
  _atom_site_occupancy
  _atom_site_fract_x
  _atom_site_fract_y
  _atom_site_fract_z
  _atom_site_thermal_displace_type
  _atom_site_B_iso_or_equiv
  _atom_site_type_symbol
  Al1      1.0000 0.50000  0.50002  0.49999  Biso   1.000  Al
  Al2      1.0000 0.00000  0.49998  0.00002  Biso   1.000  Al
  Al3      1.0000 0.50000  0.00002  0.50001  Biso   1.000  Al
  Al4      1.0000 1.00000  0.99997  0.00001  Biso   1.000  Al
  C1       1.0000 0.17161  0.75000  0.72403  Biso   1.000  C 
  C2       1.0000 0.82839  0.25000  0.27597  Biso   1.000  C 
  C3       1.0000 0.72060  0.43133  0.28586  Biso   1.000  C 
  C4       1.0000 0.89214  0.74999  0.81336  Biso   1.000  C 
  C5       1.0000 0.20781  0.93134  0.71967  Biso   1.000  C 
  C6       1.0000 0.22060  0.06867  0.21413  Biso   1.000  C 
  C7       1.0000 0.90422  0.24999  0.23721  Biso   1.000  C 
  C8       1.0000 0.70781  0.56866  0.78032  Biso   1.000  C 
  C9       1.0000 0.27940  0.93134  0.71414  Biso   1.000  C 
  C10      1.0000 0.68437  0.25000  0.28792  Biso   1.000  C 
  C11      1.0000 0.81563  0.75000  0.78792  Biso   1.000  C 
  C12      1.0000 0.77940  0.56867  0.78585  Biso   1.000  C 
  C13      1.0000 0.29219  0.06867  0.21967  Biso   1.000  C 
  C14      1.0000 0.79219  0.43133  0.28033  Biso   1.000  C 
  C15      1.0000 0.27940  0.56869  0.71414  Biso   1.000  C 
  C16      1.0000 0.79218  0.06866  0.28032  Biso   1.000  C 
  C17      1.0000 0.39214  0.75000  0.68665  Biso   1.000  C 
  C18      1.0000 0.67161  0.75000  0.77596  Biso   1.000  C 
  C19      1.0000 0.72060  0.06868  0.28586  Biso   1.000  C 
  C20      1.0000 0.09578  0.74999  0.76281  Biso   1.000  C 
  C21      1.0000 0.31563  0.75000  0.71207  Biso   1.000  C 
  C22      1.0000 0.77940  0.93132  0.78586  Biso   1.000  C 
  C23      1.0000 0.70781  0.93134  0.78032  Biso   1.000  C 
  C24      1.0000 0.40422  0.25003  0.26280  Biso   1.000  C 
  C25      1.0000 0.32840  0.25002  0.22403  Biso   1.000  C 
  C26      1.0000 0.18437  0.24999  0.21207  Biso   1.000  C 
  C27      1.0000 0.20782  0.56865  0.71967  Biso   1.000  C 
  C28      1.0000 0.60786  0.25000  0.31336  Biso   1.000  C 
  C29      1.0000 0.10786  0.24998  0.18665  Biso   1.000  C 
  C30      1.0000 0.22060  0.43133  0.21413  Biso   1.000  C 
  C31      1.0000 0.29218  0.43135  0.21967  Biso   1.000  C 
  C32      1.0000 0.59578  0.75000  0.73720  Biso   1.000  C 
  H1       1.0000 0.69156  0.57048  0.28916  Biso   1.000  H 
  H2       1.0000 0.80844  0.07047  0.78916  Biso   1.000  H 
  H3       1.0000 0.82119  0.57054  0.27569  Biso   1.000  H 
  H4       1.0000 0.82119  0.92946  0.27568  Biso   1.000  H 
  H5       1.0000 0.19157  0.92952  0.21083  Biso   1.000  H 
  H6       1.0000 0.99623  0.24999  0.71141  Biso   1.000  H 
  H7       1.0000 0.32120  0.92948  0.22430  Biso   1.000  H 
  H8       1.0000 0.67881  0.07054  0.77569  Biso   1.000  H 
  H9       1.0000 0.69156  0.92953  0.28916  Biso   1.000  H 
  H10      1.0000 0.30844  0.42953  0.71083  Biso   1.000  H 
  H11      1.0000 0.30843  0.07048  0.71084  Biso   1.000  H 
  H12      1.0000 0.17882  0.42946  0.72430  Biso   1.000  H 
  H13      1.0000 0.80844  0.42952  0.78915  Biso   1.000  H 
  H14      1.0000 0.17881  0.07054  0.72431  Biso   1.000  H 
  H15      1.0000 0.32118  0.57056  0.22430  Biso   1.000  H 
  H16      1.0000 0.49623  0.25000  0.78860  Biso   1.000  H 
  H17      1.0000 0.19155  0.57047  0.21083  Biso   1.000  H 
  H18      1.0000 0.00376  0.74997  0.28861  Biso   1.000  H 
  H19      1.0000 0.67881  0.42946  0.77568  Biso   1.000  H 
  H20      1.0000 0.50376  0.75002  0.21140  Biso   1.000  H 
  O1       1.0000 0.07799  0.41914  0.17204  Biso   1.000  O 
  O2       1.0000 0.49600  0.25001  0.63129  Biso   1.000  O 
  O3       1.0000 0.43400  0.41878  0.28444  Biso   1.000  O 
  O4       1.0000 0.06599  0.58123  0.78445  Biso   1.000  O 
  O5       1.0000 0.92201  0.91914  0.82797  Biso   1.000  O 
  O6       1.0000 0.56599  0.91875  0.71557  Biso   1.000  O 
  O7       1.0000 0.57799  0.08085  0.32797  Biso   1.000  O 
  O8       1.0000 0.92201  0.58084  0.82798  Biso   1.000  O 
  O9       1.0000 0.56599  0.58125  0.71556  Biso   1.000  O 
  O10      1.0000 0.43401  0.08127  0.28443  Biso   1.000  O 
  O11      1.0000 0.93401  0.41873  0.21558  Biso   1.000  O 
  O12      1.0000 0.07799  0.08083  0.17204  Biso   1.000  O 
  O13      1.0000 0.42201  0.91916  0.67203  Biso   1.000  O 
  O14      1.0000 0.00400  0.74998  0.13130  Biso   1.000  O 
  O15      1.0000 0.06599  0.91874  0.78444  Biso   1.000  O 
  O16      1.0000 0.99600  0.24998  0.86872  Biso   1.000  O 
  O17      1.0000 0.50401  0.75002  0.36871  Biso   1.000  O 
  O18      1.0000 0.93401  0.08123  0.21557  Biso   1.000  O 
  O19      1.0000 0.57799  0.41916  0.32796  Biso   1.000  O 
  O20      1.0000 0.42201  0.58086  0.67204  Biso   1.000  O 
