data_image0
_cell_length_a       18.5266
_cell_length_b       6.69783
_cell_length_c       9.82651
_cell_angle_alpha    90.0014
_cell_angle_beta     90.0005
_cell_angle_gamma    89.9981

_symmetry_space_group_name_H-M    "P 1"
_symmetry_int_tables_number       1

loop_
  _symmetry_equiv_pos_as_xyz
  'x, y, z'

loop_
  _atom_site_label
  _atom_site_occupancy
  _atom_site_fract_x
  _atom_site_fract_y
  _atom_site_fract_z
  _atom_site_thermal_displace_type
  _atom_site_B_iso_or_equiv
  _atom_site_type_symbol
  Al1      1.0000 0.50000  0.50000  0.50000  Biso   1.000  Al
  Al2      1.0000 1.00000  0.50000  0.99997  Biso   1.000  Al
  Al3      1.0000 0.50000  0.00000  0.50000  Biso   1.000  Al
  Al4      1.0000 1.00000  0.00000  0.00001  Biso   1.000  Al
  C1       1.0000 0.17411  0.74999  0.78450  Biso   1.000  C 
  C2       1.0000 0.82589  0.25001  0.21549  Biso   1.000  C 
  C3       1.0000 0.71945  0.43123  0.28697  Biso   1.000  C 
  C4       1.0000 0.89188  0.75004  0.86384  Biso   1.000  C 
  C5       1.0000 0.20979  0.93123  0.76015  Biso   1.000  C 
  C6       1.0000 0.21945  0.06878  0.21304  Biso   1.000  C 
  C7       1.0000 0.90005  0.25002  0.15582  Biso   1.000  C 
  C8       1.0000 0.70979  0.56878  0.73984  Biso   1.000  C 
  C9       1.0000 0.28055  0.93122  0.71303  Biso   1.000  C 
  C10      1.0000 0.68349  0.25000  0.31002  Biso   1.000  C 
  C11      1.0000 0.81652  0.75001  0.81001  Biso   1.000  C 
  C12      1.0000 0.78056  0.56879  0.78696  Biso   1.000  C 
  C13      1.0000 0.29020  0.06877  0.26018  Biso   1.000  C 
  C14      1.0000 0.79021  0.43125  0.23983  Biso   1.000  C 
  C15      1.0000 0.28055  0.56878  0.71305  Biso   1.000  C 
  C16      1.0000 0.79021  0.06877  0.23984  Biso   1.000  C 
  C17      1.0000 0.39188  0.75000  0.63614  Biso   1.000  C 
  C18      1.0000 0.67410  0.75000  0.71550  Biso   1.000  C 
  C19      1.0000 0.71945  0.06878  0.28698  Biso   1.000  C 
  C20      1.0000 0.09994  0.74999  0.84417  Biso   1.000  C 
  C21      1.0000 0.31651  0.75000  0.68999  Biso   1.000  C 
  C22      1.0000 0.78055  0.93122  0.78695  Biso   1.000  C 
  C23      1.0000 0.70979  0.93124  0.73982  Biso   1.000  C 
  C24      1.0000 0.40006  0.24999  0.34418  Biso   1.000  C 
  C25      1.0000 0.32589  0.25001  0.28451  Biso   1.000  C 
  C26      1.0000 0.18348  0.24999  0.18999  Biso   1.000  C 
  C27      1.0000 0.20980  0.56875  0.76018  Biso   1.000  C 
  C28      1.0000 0.60813  0.25001  0.36386  Biso   1.000  C 
  C29      1.0000 0.10812  0.24997  0.13614  Biso   1.000  C 
  C30      1.0000 0.21944  0.43121  0.21305  Biso   1.000  C 
  C31      1.0000 0.29020  0.43123  0.26018  Biso   1.000  C 
  C32      1.0000 0.59994  0.75000  0.65583  Biso   1.000  C 
  H1       1.0000 0.69091  0.57036  0.30687  Biso   1.000  H 
  H2       1.0000 0.80908  0.07035  0.80686  Biso   1.000  H 
  H3       1.0000 0.81881  0.57028  0.21994  Biso   1.000  H 
  H4       1.0000 0.81883  0.92975  0.21995  Biso   1.000  H 
  H5       1.0000 0.19092  0.92964  0.19313  Biso   1.000  H 
  H6       1.0000 0.98738  0.24998  0.82083  Biso   1.000  H 
  H7       1.0000 0.31883  0.92976  0.28005  Biso   1.000  H 
  H8       1.0000 0.68117  0.07026  0.71994  Biso   1.000  H 
  H9       1.0000 0.69093  0.92965  0.30688  Biso   1.000  H 
  H10      1.0000 0.30909  0.42965  0.69314  Biso   1.000  H 
  H11      1.0000 0.30908  0.07036  0.69313  Biso   1.000  H 
  H12      1.0000 0.18118  0.42972  0.78006  Biso   1.000  H 
  H13      1.0000 0.80909  0.42966  0.80687  Biso   1.000  H 
  H14      1.0000 0.18117  0.07026  0.78004  Biso   1.000  H 
  H15      1.0000 0.31881  0.57027  0.28007  Biso   1.000  H 
  H16      1.0000 0.48738  0.24999  0.67916  Biso   1.000  H 
  H17      1.0000 0.19091  0.57034  0.19314  Biso   1.000  H 
  H18      1.0000 0.01262  0.74999  0.17916  Biso   1.000  H 
  H19      1.0000 0.68118  0.42974  0.71995  Biso   1.000  H 
  H20      1.0000 0.51262  0.74999  0.32085  Biso   1.000  H 
  O1       1.0000 0.07878  0.41903  0.11425  Biso   1.000  O 
  O2       1.0000 0.49740  0.25000  0.58250  Biso   1.000  O 
  O3       1.0000 0.42869  0.41908  0.36895  Biso   1.000  O 
  O4       1.0000 0.07132  0.58089  0.86891  Biso   1.000  O 
  O5       1.0000 0.92121  0.91911  0.88574  Biso   1.000  O 
  O6       1.0000 0.57131  0.91911  0.63107  Biso   1.000  O 
  O7       1.0000 0.57880  0.08094  0.38575  Biso   1.000  O 
  O8       1.0000 0.92122  0.58097  0.88572  Biso   1.000  O 
  O9       1.0000 0.57131  0.58090  0.63107  Biso   1.000  O 
  O10      1.0000 0.42868  0.08087  0.36892  Biso   1.000  O 
  O11      1.0000 0.92868  0.41911  0.13107  Biso   1.000  O 
  O12      1.0000 0.07880  0.08088  0.11426  Biso   1.000  O 
  O13      1.0000 0.42121  0.91907  0.61425  Biso   1.000  O 
  O14      1.0000 0.00260  0.74999  0.08250  Biso   1.000  O 
  O15      1.0000 0.07132  0.91910  0.86894  Biso   1.000  O 
  O16      1.0000 0.99740  0.25000  0.91749  Biso   1.000  O 
  O17      1.0000 0.50260  0.75000  0.41751  Biso   1.000  O 
  O18      1.0000 0.92868  0.08091  0.13105  Biso   1.000  O 
  O19      1.0000 0.57879  0.41908  0.38573  Biso   1.000  O 
  O20      1.0000 0.42122  0.58093  0.61428  Biso   1.000  O 
