data_image0
_cell_length_a       19.3991
_cell_length_b       6.69934
_cell_length_c       6.49808
_cell_angle_alpha    90.0019
_cell_angle_beta     89.997
_cell_angle_gamma    89.9949

_symmetry_space_group_name_H-M    "P 1"
_symmetry_int_tables_number       1

loop_
  _symmetry_equiv_pos_as_xyz
  'x, y, z'

loop_
  _atom_site_label
  _atom_site_occupancy
  _atom_site_fract_x
  _atom_site_fract_y
  _atom_site_fract_z
  _atom_site_thermal_displace_type
  _atom_site_B_iso_or_equiv
  _atom_site_type_symbol
  Al1      1.0000 0.50000  0.50000  0.49998  Biso   1.000  Al
  Al2      1.0000 0.00000  0.49999  0.99997  Biso   1.000  Al
  Al3      1.0000 0.50001  0.00001  0.50000  Biso   1.000  Al
  Al4      1.0000 0.99999  1.00000  0.00002  Biso   1.000  Al
  C1       1.0000 0.17526  0.74996  0.74799  Biso   1.000  C 
  C2       1.0000 0.82473  0.25005  0.25202  Biso   1.000  C 
  C3       1.0000 0.71701  0.43116  0.26946  Biso   1.000  C 
  C4       1.0000 0.89540  0.75001  0.80729  Biso   1.000  C 
  C5       1.0000 0.21144  0.93109  0.74150  Biso   1.000  C 
  C6       1.0000 0.21704  0.06891  0.23054  Biso   1.000  C 
  C7       1.0000 0.90055  0.25005  0.21337  Biso   1.000  C 
  C8       1.0000 0.71146  0.56884  0.75852  Biso   1.000  C 
  C9       1.0000 0.28295  0.93107  0.73054  Biso   1.000  C 
  C10      1.0000 0.68081  0.25004  0.27485  Biso   1.000  C 
  C11      1.0000 0.81920  0.74997  0.77486  Biso   1.000  C 
  C12      1.0000 0.78298  0.56886  0.76945  Biso   1.000  C 
  C13      1.0000 0.28855  0.06892  0.24150  Biso   1.000  C 
  C14      1.0000 0.78853  0.43117  0.25855  Biso   1.000  C 
  C15      1.0000 0.28298  0.56884  0.73053  Biso   1.000  C 
  C16      1.0000 0.78855  0.06892  0.25852  Biso   1.000  C 
  C17      1.0000 0.39539  0.74999  0.69274  Biso   1.000  C 
  C18      1.0000 0.67527  0.74995  0.75197  Biso   1.000  C 
  C19      1.0000 0.71704  0.06894  0.26946  Biso   1.000  C 
  C20      1.0000 0.09944  0.74995  0.78665  Biso   1.000  C 
  C21      1.0000 0.31918  0.74997  0.72513  Biso   1.000  C 
  C22      1.0000 0.78297  0.93107  0.76945  Biso   1.000  C 
  C23      1.0000 0.71145  0.93108  0.75848  Biso   1.000  C 
  C24      1.0000 0.40056  0.25005  0.28666  Biso   1.000  C 
  C25      1.0000 0.32473  0.25005  0.24800  Biso   1.000  C 
  C26      1.0000 0.18081  0.25002  0.22516  Biso   1.000  C 
  C27      1.0000 0.21146  0.56884  0.74146  Biso   1.000  C 
  C28      1.0000 0.60460  0.25001  0.30724  Biso   1.000  C 
  C29      1.0000 0.10460  0.24999  0.19274  Biso   1.000  C 
  C30      1.0000 0.21702  0.43114  0.23055  Biso   1.000  C 
  C31      1.0000 0.28854  0.43118  0.24148  Biso   1.000  C 
  C32      1.0000 0.59945  0.74996  0.71332  Biso   1.000  C 
  H1       1.0000 0.68803  0.57017  0.27522  Biso   1.000  H 
  H2       1.0000 0.81193  0.07009  0.77523  Biso   1.000  H 
  H3       1.0000 0.81748  0.57019  0.25205  Biso   1.000  H 
  H4       1.0000 0.81751  0.92991  0.25199  Biso   1.000  H 
  H5       1.0000 0.18808  0.92990  0.22480  Biso   1.000  H 
  H6       1.0000 0.00016  0.24998  0.72620  Biso   1.000  H 
  H7       1.0000 0.31752  0.92992  0.24803  Biso   1.000  H 
  H8       1.0000 0.68249  0.07009  0.75197  Biso   1.000  H 
  H9       1.0000 0.68807  0.92995  0.27519  Biso   1.000  H 
  H10      1.0000 0.31196  0.42984  0.72474  Biso   1.000  H 
  H11      1.0000 0.31192  0.07007  0.72479  Biso   1.000  H 
  H12      1.0000 0.18252  0.42982  0.74794  Biso   1.000  H 
  H13      1.0000 0.81196  0.42985  0.77523  Biso   1.000  H 
  H14      1.0000 0.18247  0.07009  0.74802  Biso   1.000  H 
  H15      1.0000 0.31748  0.57020  0.24794  Biso   1.000  H 
  H16      1.0000 0.50014  0.24999  0.77381  Biso   1.000  H 
  H17      1.0000 0.18804  0.57013  0.22478  Biso   1.000  H 
  H18      1.0000 0.99986  0.75000  0.27380  Biso   1.000  H 
  H19      1.0000 0.68252  0.42981  0.75204  Biso   1.000  H 
  H20      1.0000 0.49987  0.75002  0.22620  Biso   1.000  H 
  O1       1.0000 0.07486  0.41883  0.17553  Biso   1.000  O 
  O2       1.0000 0.49836  0.24997  0.62485  Biso   1.000  O 
  O3       1.0000 0.43022  0.41868  0.30719  Biso   1.000  O 
  O4       1.0000 0.06979  0.58130  0.80721  Biso   1.000  O 
  O5       1.0000 0.92512  0.91884  0.82452  Biso   1.000  O 
  O6       1.0000 0.56979  0.91860  0.69279  Biso   1.000  O 
  O7       1.0000 0.57488  0.08117  0.32444  Biso   1.000  O 
  O8       1.0000 0.92514  0.58118  0.82448  Biso   1.000  O 
  O9       1.0000 0.56979  0.58133  0.69282  Biso   1.000  O 
  O10      1.0000 0.43021  0.08138  0.30719  Biso   1.000  O 
  O11      1.0000 0.93021  0.41868  0.19282  Biso   1.000  O 
  O12      1.0000 0.07489  0.08114  0.17551  Biso   1.000  O 
  O13      1.0000 0.42512  0.91883  0.67555  Biso   1.000  O 
  O14      1.0000 0.00164  0.75002  0.12485  Biso   1.000  O 
  O15      1.0000 0.06977  0.91858  0.80715  Biso   1.000  O 
  O16      1.0000 0.99836  0.24999  0.87515  Biso   1.000  O 
  O17      1.0000 0.50164  0.74999  0.37515  Biso   1.000  O 
  O18      1.0000 0.93022  0.08141  0.19287  Biso   1.000  O 
  O19      1.0000 0.57486  0.41884  0.32446  Biso   1.000  O 
  O20      1.0000 0.42513  0.58115  0.67553  Biso   1.000  O 
