data_image0
_cell_length_a       19.1589
_cell_length_b       6.71
_cell_length_c       7.89054
_cell_angle_alpha    89.9953
_cell_angle_beta     90.0012
_cell_angle_gamma    89.9967

_symmetry_space_group_name_H-M    "P 1"
_symmetry_int_tables_number       1

loop_
  _symmetry_equiv_pos_as_xyz
  'x, y, z'

loop_
  _atom_site_label
  _atom_site_occupancy
  _atom_site_fract_x
  _atom_site_fract_y
  _atom_site_fract_z
  _atom_site_thermal_displace_type
  _atom_site_B_iso_or_equiv
  _atom_site_type_symbol
  Al1      1.0000 0.50000  0.50000  0.50001  Biso   1.000  Al
  Al2      1.0000 0.00000  0.50000  0.00003  Biso   1.000  Al
  Al3      1.0000 0.50000  0.00000  0.50000  Biso   1.000  Al
  Al4      1.0000 1.00000  0.99999  0.00003  Biso   1.000  Al
  C1       1.0000 0.17428  0.75000  0.76748  Biso   1.000  C 
  C2       1.0000 0.82571  0.25000  0.23251  Biso   1.000  C 
  C3       1.0000 0.71816  0.43092  0.27984  Biso   1.000  C 
  C4       1.0000 0.89397  0.75003  0.83861  Biso   1.000  C 
  C5       1.0000 0.21041  0.93092  0.75135  Biso   1.000  C 
  C6       1.0000 0.21818  0.06906  0.22016  Biso   1.000  C 
  C7       1.0000 0.90097  0.25000  0.18328  Biso   1.000  C 
  C8       1.0000 0.71044  0.56908  0.74859  Biso   1.000  C 
  C9       1.0000 0.28182  0.93092  0.72013  Biso   1.000  C 
  C10      1.0000 0.68198  0.25000  0.29516  Biso   1.000  C 
  C11      1.0000 0.81803  0.75003  0.79513  Biso   1.000  C 
  C12      1.0000 0.78185  0.56909  0.77980  Biso   1.000  C 
  C13      1.0000 0.28959  0.06908  0.25137  Biso   1.000  C 
  C14      1.0000 0.78958  0.43092  0.24862  Biso   1.000  C 
  C15      1.0000 0.28183  0.56907  0.72013  Biso   1.000  C 
  C16      1.0000 0.78958  0.06908  0.24864  Biso   1.000  C 
  C17      1.0000 0.39396  0.75000  0.66137  Biso   1.000  C 
  C18      1.0000 0.67429  0.74999  0.73248  Biso   1.000  C 
  C19      1.0000 0.71817  0.06908  0.27985  Biso   1.000  C 
  C20      1.0000 0.09903  0.74999  0.81675  Biso   1.000  C 
  C21      1.0000 0.31801  0.75000  0.70481  Biso   1.000  C 
  C22      1.0000 0.78183  0.93094  0.77982  Biso   1.000  C 
  C23      1.0000 0.71042  0.93092  0.74861  Biso   1.000  C 
  C24      1.0000 0.40097  0.25002  0.31673  Biso   1.000  C 
  C25      1.0000 0.32571  0.25001  0.26750  Biso   1.000  C 
  C26      1.0000 0.18198  0.24997  0.20486  Biso   1.000  C 
  C27      1.0000 0.21042  0.56908  0.75136  Biso   1.000  C 
  C28      1.0000 0.60604  0.25001  0.33862  Biso   1.000  C 
  C29      1.0000 0.10603  0.24996  0.16142  Biso   1.000  C 
  C30      1.0000 0.21815  0.43091  0.22018  Biso   1.000  C 
  C31      1.0000 0.28957  0.43092  0.25139  Biso   1.000  C 
  C32      1.0000 0.59904  0.74998  0.68327  Biso   1.000  C 
  H1       1.0000 0.68925  0.56973  0.29349  Biso   1.000  H 
  H2       1.0000 0.81074  0.06974  0.79348  Biso   1.000  H 
  H3       1.0000 0.81840  0.56979  0.23437  Biso   1.000  H 
  H4       1.0000 0.81841  0.93021  0.23442  Biso   1.000  H 
  H5       1.0000 0.18927  0.93026  0.20649  Biso   1.000  H 
  H6       1.0000 0.99980  0.25003  0.77472  Biso   1.000  H 
  H7       1.0000 0.31842  0.93022  0.26560  Biso   1.000  H 
  H8       1.0000 0.68159  0.06978  0.73437  Biso   1.000  H 
  H9       1.0000 0.68925  0.93028  0.29351  Biso   1.000  H 
  H10      1.0000 0.31074  0.43027  0.70647  Biso   1.000  H 
  H11      1.0000 0.31074  0.06972  0.70647  Biso   1.000  H 
  H12      1.0000 0.18159  0.43021  0.76559  Biso   1.000  H 
  H13      1.0000 0.81078  0.43029  0.79345  Biso   1.000  H 
  H14      1.0000 0.18159  0.06979  0.76558  Biso   1.000  H 
  H15      1.0000 0.31838  0.56981  0.26563  Biso   1.000  H 
  H16      1.0000 0.49980  0.24998  0.72531  Biso   1.000  H 
  H17      1.0000 0.18923  0.56971  0.20653  Biso   1.000  H 
  H18      1.0000 0.00021  0.74998  0.22533  Biso   1.000  H 
  H19      1.0000 0.68162  0.43020  0.73435  Biso   1.000  H 
  H20      1.0000 0.50017  0.75002  0.27470  Biso   1.000  H 
  O1       1.0000 0.07652  0.41867  0.14224  Biso   1.000  O 
  O2       1.0000 0.49780  0.25000  0.60273  Biso   1.000  O 
  O3       1.0000 0.43027  0.41854  0.33915  Biso   1.000  O 
  O4       1.0000 0.06973  0.58149  0.83919  Biso   1.000  O 
  O5       1.0000 0.92346  0.91875  0.85787  Biso   1.000  O 
  O6       1.0000 0.56971  0.91847  0.66087  Biso   1.000  O 
  O7       1.0000 0.57654  0.08129  0.35784  Biso   1.000  O 
  O8       1.0000 0.92348  0.58132  0.85781  Biso   1.000  O 
  O9       1.0000 0.56973  0.58147  0.66085  Biso   1.000  O 
  O10      1.0000 0.43030  0.08153  0.33912  Biso   1.000  O 
  O11      1.0000 0.93027  0.41851  0.16084  Biso   1.000  O 
  O12      1.0000 0.07654  0.08125  0.14217  Biso   1.000  O 
  O13      1.0000 0.42346  0.91872  0.64216  Biso   1.000  O 
  O14      1.0000 0.00220  0.74999  0.10275  Biso   1.000  O 
  O15      1.0000 0.06971  0.91849  0.83916  Biso   1.000  O 
  O16      1.0000 0.99781  0.25001  0.89731  Biso   1.000  O 
  O17      1.0000 0.50220  0.75001  0.39728  Biso   1.000  O 
  O18      1.0000 0.93029  0.08151  0.16089  Biso   1.000  O 
  O19      1.0000 0.57653  0.41872  0.35783  Biso   1.000  O 
  O20      1.0000 0.42347  0.58129  0.64218  Biso   1.000  O 
