data_image0
_cell_length_a       17.9571
_cell_length_b       6.69057
_cell_length_c       11.0483
_cell_angle_alpha    89.9997
_cell_angle_beta     90.0003
_cell_angle_gamma    90.0003

_symmetry_space_group_name_H-M    "P 1"
_symmetry_int_tables_number       1

loop_
  _symmetry_equiv_pos_as_xyz
  'x, y, z'

loop_
  _atom_site_label
  _atom_site_occupancy
  _atom_site_fract_x
  _atom_site_fract_y
  _atom_site_fract_z
  _atom_site_thermal_displace_type
  _atom_site_B_iso_or_equiv
  _atom_site_type_symbol
  Al1      1.0000 0.50000  0.50000  0.50000  Biso   1.000  Al
  Al2      1.0000 1.00000  0.50000  1.00000  Biso   1.000  Al
  Al3      1.0000 0.50000  1.00000  0.50000  Biso   1.000  Al
  Al4      1.0000 1.00000  1.00000  0.00000  Biso   1.000  Al
  C1       1.0000 0.17318  0.75000  0.79004  Biso   1.000  C 
  C2       1.0000 0.82682  0.25000  0.20996  Biso   1.000  C 
  C3       1.0000 0.72178  0.43147  0.29202  Biso   1.000  C 
  C4       1.0000 0.88877  0.75001  0.87689  Biso   1.000  C 
  C5       1.0000 0.20833  0.93146  0.76216  Biso   1.000  C 
  C6       1.0000 0.22178  0.06852  0.20798  Biso   1.000  C 
  C7       1.0000 0.89992  0.25000  0.14537  Biso   1.000  C 
  C8       1.0000 0.70833  0.56855  0.73784  Biso   1.000  C 
  C9       1.0000 0.27821  0.93147  0.70798  Biso   1.000  C 
  C10      1.0000 0.68623  0.25000  0.31861  Biso   1.000  C 
  C11      1.0000 0.81377  0.75000  0.81861  Biso   1.000  C 
  C12      1.0000 0.77822  0.56854  0.79202  Biso   1.000  C 
  C13      1.0000 0.29167  0.06853  0.26216  Biso   1.000  C 
  C14      1.0000 0.79167  0.43146  0.23784  Biso   1.000  C 
  C15      1.0000 0.27822  0.56853  0.70798  Biso   1.000  C 
  C16      1.0000 0.79167  0.06854  0.23784  Biso   1.000  C 
  C17      1.0000 0.38877  0.75001  0.62311  Biso   1.000  C 
  C18      1.0000 0.67318  0.75001  0.70996  Biso   1.000  C 
  C19      1.0000 0.72179  0.06853  0.29202  Biso   1.000  C 
  C20      1.0000 0.10008  0.75000  0.85463  Biso   1.000  C 
  C21      1.0000 0.31377  0.75000  0.68139  Biso   1.000  C 
  C22      1.0000 0.77822  0.93148  0.79202  Biso   1.000  C 
  C23      1.0000 0.70833  0.93146  0.73784  Biso   1.000  C 
  C24      1.0000 0.39991  0.24999  0.35463  Biso   1.000  C 
  C25      1.0000 0.32682  0.24999  0.29004  Biso   1.000  C 
  C26      1.0000 0.18623  0.25000  0.18139  Biso   1.000  C 
  C27      1.0000 0.20833  0.56855  0.76216  Biso   1.000  C 
  C28      1.0000 0.61123  0.25000  0.37689  Biso   1.000  C 
  C29      1.0000 0.11123  0.24999  0.12311  Biso   1.000  C 
  C30      1.0000 0.22178  0.43146  0.20798  Biso   1.000  C 
  C31      1.0000 0.29167  0.43145  0.26216  Biso   1.000  C 
  C32      1.0000 0.60008  0.75001  0.64537  Biso   1.000  C 
  H1       1.0000 0.69355  0.57067  0.31459  Biso   1.000  H 
  H2       1.0000 0.80645  0.07068  0.81459  Biso   1.000  H 
  H3       1.0000 0.82004  0.57045  0.21527  Biso   1.000  H 
  H4       1.0000 0.82004  0.92955  0.21527  Biso   1.000  H 
  H5       1.0000 0.19355  0.92932  0.18541  Biso   1.000  H 
  H6       1.0000 0.98236  0.24999  0.84209  Biso   1.000  H 
  H7       1.0000 0.32004  0.92954  0.28473  Biso   1.000  H 
  H8       1.0000 0.67996  0.07045  0.71527  Biso   1.000  H 
  H9       1.0000 0.69355  0.92933  0.31459  Biso   1.000  H 
  H10      1.0000 0.30645  0.42933  0.68541  Biso   1.000  H 
  H11      1.0000 0.30645  0.07067  0.68542  Biso   1.000  H 
  H12      1.0000 0.17996  0.42956  0.78473  Biso   1.000  H 
  H13      1.0000 0.80646  0.42934  0.81458  Biso   1.000  H 
  H14      1.0000 0.17996  0.07046  0.78473  Biso   1.000  H 
  H15      1.0000 0.32004  0.57044  0.28474  Biso   1.000  H 
  H16      1.0000 0.48237  0.25000  0.65792  Biso   1.000  H 
  H17      1.0000 0.19355  0.57066  0.18542  Biso   1.000  H 
  H18      1.0000 0.01764  0.75000  0.15792  Biso   1.000  H 
  H19      1.0000 0.67996  0.42956  0.71526  Biso   1.000  H 
  H20      1.0000 0.51764  0.75000  0.34208  Biso   1.000  H 
  O1       1.0000 0.08194  0.41929  0.10022  Biso   1.000  O 
  O2       1.0000 0.49640  0.25000  0.57333  Biso   1.000  O 
  O3       1.0000 0.42807  0.41941  0.38061  Biso   1.000  O 
  O4       1.0000 0.07193  0.58058  0.88061  Biso   1.000  O 
  O5       1.0000 0.91806  0.91930  0.89979  Biso   1.000  O 
  O6       1.0000 0.57192  0.91943  0.61939  Biso   1.000  O 
  O7       1.0000 0.58194  0.08070  0.39978  Biso   1.000  O 
  O8       1.0000 0.91806  0.58070  0.89978  Biso   1.000  O 
  O9       1.0000 0.57193  0.58058  0.61938  Biso   1.000  O 
  O10      1.0000 0.42807  0.08057  0.38061  Biso   1.000  O 
  O11      1.0000 0.92807  0.41942  0.11938  Biso   1.000  O 
  O12      1.0000 0.08193  0.08070  0.10021  Biso   1.000  O 
  O13      1.0000 0.41806  0.91930  0.60022  Biso   1.000  O 
  O14      1.0000 0.00361  0.74999  0.07333  Biso   1.000  O 
  O15      1.0000 0.07193  0.91942  0.88061  Biso   1.000  O 
  O16      1.0000 0.99640  0.25000  0.92667  Biso   1.000  O 
  O17      1.0000 0.50360  0.75000  0.42666  Biso   1.000  O 
  O18      1.0000 0.92808  0.08058  0.11939  Biso   1.000  O 
  O19      1.0000 0.58194  0.41930  0.39978  Biso   1.000  O 
  O20      1.0000 0.41806  0.58071  0.60022  Biso   1.000  O 
