data_image0
_cell_length_a       18.2777
_cell_length_b       6.68978
_cell_length_c       10.4099
_cell_angle_alpha    90.0011
_cell_angle_beta     90.0001
_cell_angle_gamma    89.9997

_symmetry_space_group_name_H-M    "P 1"
_symmetry_int_tables_number       1

loop_
  _symmetry_equiv_pos_as_xyz
  'x, y, z'

loop_
  _atom_site_label
  _atom_site_occupancy
  _atom_site_fract_x
  _atom_site_fract_y
  _atom_site_fract_z
  _atom_site_thermal_displace_type
  _atom_site_B_iso_or_equiv
  _atom_site_type_symbol
  Al1      1.0000 0.50000  0.50000  0.50000  Biso   1.000  Al
  Al2      1.0000 0.00000  0.50000  0.00000  Biso   1.000  Al
  Al3      1.0000 0.50000  0.00000  0.50000  Biso   1.000  Al
  Al4      1.0000 1.00000  0.99999  0.00000  Biso   1.000  Al
  C1       1.0000 0.17339  0.75000  0.78677  Biso   1.000  C 
  C2       1.0000 0.82661  0.25000  0.21323  Biso   1.000  C 
  C3       1.0000 0.72073  0.43143  0.28991  Biso   1.000  C 
  C4       1.0000 0.89031  0.74999  0.87071  Biso   1.000  C 
  C5       1.0000 0.20885  0.93146  0.76063  Biso   1.000  C 
  C6       1.0000 0.22073  0.06858  0.21009  Biso   1.000  C 
  C7       1.0000 0.90029  0.25000  0.15103  Biso   1.000  C 
  C8       1.0000 0.70885  0.56855  0.73938  Biso   1.000  C 
  C9       1.0000 0.27926  0.93142  0.71009  Biso   1.000  C 
  C10      1.0000 0.68488  0.25001  0.31463  Biso   1.000  C 
  C11      1.0000 0.81512  0.74999  0.81463  Biso   1.000  C 
  C12      1.0000 0.77927  0.56858  0.78991  Biso   1.000  C 
  C13      1.0000 0.29115  0.06854  0.26062  Biso   1.000  C 
  C14      1.0000 0.79115  0.43146  0.23938  Biso   1.000  C 
  C15      1.0000 0.27927  0.56857  0.71008  Biso   1.000  C 
  C16      1.0000 0.79115  0.06854  0.23937  Biso   1.000  C 
  C17      1.0000 0.39031  0.75001  0.62929  Biso   1.000  C 
  C18      1.0000 0.67339  0.75001  0.71323  Biso   1.000  C 
  C19      1.0000 0.72074  0.06858  0.28991  Biso   1.000  C 
  C20      1.0000 0.09971  0.75000  0.84897  Biso   1.000  C 
  C21      1.0000 0.31511  0.75000  0.68537  Biso   1.000  C 
  C22      1.0000 0.77927  0.93142  0.78991  Biso   1.000  C 
  C23      1.0000 0.70885  0.93146  0.73938  Biso   1.000  C 
  C24      1.0000 0.40029  0.24999  0.34897  Biso   1.000  C 
  C25      1.0000 0.32661  0.24999  0.28677  Biso   1.000  C 
  C26      1.0000 0.18488  0.25001  0.18537  Biso   1.000  C 
  C27      1.0000 0.20885  0.56854  0.76062  Biso   1.000  C 
  C28      1.0000 0.60970  0.25000  0.37071  Biso   1.000  C 
  C29      1.0000 0.10969  0.25000  0.12929  Biso   1.000  C 
  C30      1.0000 0.22073  0.43143  0.21009  Biso   1.000  C 
  C31      1.0000 0.29115  0.43145  0.26062  Biso   1.000  C 
  C32      1.0000 0.59971  0.75001  0.65103  Biso   1.000  C 
  H1       1.0000 0.69242  0.57082  0.31111  Biso   1.000  H 
  H2       1.0000 0.80759  0.07083  0.81110  Biso   1.000  H 
  H3       1.0000 0.81968  0.57063  0.21832  Biso   1.000  H 
  H4       1.0000 0.81968  0.92940  0.21832  Biso   1.000  H 
  H5       1.0000 0.19241  0.92917  0.18890  Biso   1.000  H 
  H6       1.0000 0.98079  0.25000  0.83350  Biso   1.000  H 
  H7       1.0000 0.31967  0.92938  0.28168  Biso   1.000  H 
  H8       1.0000 0.68033  0.07062  0.71832  Biso   1.000  H 
  H9       1.0000 0.69242  0.92917  0.31110  Biso   1.000  H 
  H10      1.0000 0.30758  0.42918  0.68889  Biso   1.000  H 
  H11      1.0000 0.30758  0.07082  0.68890  Biso   1.000  H 
  H12      1.0000 0.18032  0.42937  0.78168  Biso   1.000  H 
  H13      1.0000 0.80758  0.42918  0.81110  Biso   1.000  H 
  H14      1.0000 0.18032  0.07061  0.78169  Biso   1.000  H 
  H15      1.0000 0.31968  0.57062  0.28169  Biso   1.000  H 
  H16      1.0000 0.48079  0.25000  0.66651  Biso   1.000  H 
  H17      1.0000 0.19242  0.57082  0.18890  Biso   1.000  H 
  H18      1.0000 0.01921  0.74999  0.16651  Biso   1.000  H 
  H19      1.0000 0.68032  0.42939  0.71831  Biso   1.000  H 
  H20      1.0000 0.51921  0.75000  0.33349  Biso   1.000  H 
  O1       1.0000 0.08036  0.41926  0.10684  Biso   1.000  O 
  O2       1.0000 0.49669  0.25000  0.57782  Biso   1.000  O 
  O3       1.0000 0.42864  0.41941  0.37441  Biso   1.000  O 
  O4       1.0000 0.07136  0.58057  0.87441  Biso   1.000  O 
  O5       1.0000 0.91964  0.91925  0.89317  Biso   1.000  O 
  O6       1.0000 0.57136  0.91943  0.62560  Biso   1.000  O 
  O7       1.0000 0.58036  0.08074  0.39316  Biso   1.000  O 
  O8       1.0000 0.91964  0.58074  0.89316  Biso   1.000  O 
  O9       1.0000 0.57136  0.58059  0.62559  Biso   1.000  O 
  O10      1.0000 0.42864  0.08057  0.37440  Biso   1.000  O 
  O11      1.0000 0.92864  0.41943  0.12559  Biso   1.000  O 
  O12      1.0000 0.08036  0.08075  0.10683  Biso   1.000  O 
  O13      1.0000 0.41964  0.91927  0.60684  Biso   1.000  O 
  O14      1.0000 0.00331  0.75000  0.07783  Biso   1.000  O 
  O15      1.0000 0.07136  0.91941  0.87442  Biso   1.000  O 
  O16      1.0000 0.99669  0.25000  0.92218  Biso   1.000  O 
  O17      1.0000 0.50331  0.75000  0.42218  Biso   1.000  O 
  O18      1.0000 0.92864  0.08059  0.12558  Biso   1.000  O 
  O19      1.0000 0.58036  0.41925  0.39317  Biso   1.000  O 
  O20      1.0000 0.41964  0.58075  0.60683  Biso   1.000  O 
